
---------- Begin Simulation Statistics ----------
simSeconds                                   1.445995                       # Number of seconds simulated (Second)
simTicks                                 1445994590000                       # Number of ticks simulated (Tick)
finalTick                                1677705297750                       # Number of ticks from beginning of simulation (restored from checkpoints and never reset) (Tick)
simFreq                                  1000000000000                       # The number of ticks per simulated second ((Tick/Second))
hostSeconds                                   2714.81                       # Real time elapsed on the host (Second)
hostTickRate                                532631551                       # The number of ticks simulated per host second (ticks/s) ((Tick/Second))
hostMemory                                  408001456                       # Number of bytes of host memory used (Byte)
simInsts                                    340410932                       # Number of instructions simulated (Count)
simOps                                      375073187                       # Number of ops (including micro ops) simulated (Count)
hostInstRate                                   125390                       # Simulator instruction rate (inst/s) ((Count/Second))
hostOpRate                                     138158                       # Simulator op (including micro ops) rate (op/s) ((Count/Second))
system.clk_domain.clock                          1000                       # Clock period in ticks (Tick)
system.cpu_cluster.clk_domain.clock               250                       # Clock period in ticks (Tick)
system.cpu_cluster.cpus.numCycles          5783978340                       # Number of cpu cycles simulated (Cycle)
system.cpu_cluster.cpus.cpi                 16.989762                       # CPI: cycles per instruction (core level) ((Cycle/Count))
system.cpu_cluster.cpus.ipc                  0.058859                       # IPC: instructions per cycle (core level) ((Count/Cycle))
system.cpu_cluster.cpus.numWorkItemsStarted            0                       # Number of work items this cpu started (Count)
system.cpu_cluster.cpus.numWorkItemsCompleted            0                       # Number of work items this cpu completed (Count)
system.cpu_cluster.cpus.instsAdded          372127664                       # Number of instructions added to the IQ (excludes non-spec) (Count)
system.cpu_cluster.cpus.nonSpecInstsAdded      5354594                       # Number of non-speculative instructions added to the IQ (Count)
system.cpu_cluster.cpus.instsIssued         395142451                       # Number of instructions issued (Count)
system.cpu_cluster.cpus.squashedInstsIssued       401327                       # Number of squashed instructions issued (Count)
system.cpu_cluster.cpus.squashedInstsExamined      2409071                       # Number of squashed instructions iterated over during squash; mainly for profiling (Count)
system.cpu_cluster.cpus.squashedOperandsExamined      1920252                       # Number of squashed operands that are examined and possibly removed from graph (Count)
system.cpu_cluster.cpus.squashedNonSpecRemoved         3305                       # Number of squashed non-spec instructions that were removed (Count)
system.cpu_cluster.cpus.numIssuedDist::samples   5777194707                       # Number of insts issued each cycle (Count)
system.cpu_cluster.cpus.numIssuedDist::mean     0.068397                       # Number of insts issued each cycle (Count)
system.cpu_cluster.cpus.numIssuedDist::stdev     0.372965                       # Number of insts issued each cycle (Count)
system.cpu_cluster.cpus.numIssuedDist::underflows            0      0.00%      0.00% # Number of insts issued each cycle (Count)
system.cpu_cluster.cpus.numIssuedDist::0   5547622775     96.03%     96.03% # Number of insts issued each cycle (Count)
system.cpu_cluster.cpus.numIssuedDist::1    108515484      1.88%     97.90% # Number of insts issued each cycle (Count)
system.cpu_cluster.cpus.numIssuedDist::2     81759486      1.42%     99.32% # Number of insts issued each cycle (Count)
system.cpu_cluster.cpus.numIssuedDist::3     36532082      0.63%     99.95% # Number of insts issued each cycle (Count)
system.cpu_cluster.cpus.numIssuedDist::4       312651      0.01%     99.96% # Number of insts issued each cycle (Count)
system.cpu_cluster.cpus.numIssuedDist::5      2452229      0.04%    100.00% # Number of insts issued each cycle (Count)
system.cpu_cluster.cpus.numIssuedDist::6            0      0.00%    100.00% # Number of insts issued each cycle (Count)
system.cpu_cluster.cpus.numIssuedDist::7            0      0.00%    100.00% # Number of insts issued each cycle (Count)
system.cpu_cluster.cpus.numIssuedDist::8            0      0.00%    100.00% # Number of insts issued each cycle (Count)
system.cpu_cluster.cpus.numIssuedDist::overflows            0      0.00%    100.00% # Number of insts issued each cycle (Count)
system.cpu_cluster.cpus.numIssuedDist::min_value            0                       # Number of insts issued each cycle (Count)
system.cpu_cluster.cpus.numIssuedDist::max_value            5                       # Number of insts issued each cycle (Count)
system.cpu_cluster.cpus.numIssuedDist::total   5777194707                       # Number of insts issued each cycle (Count)
system.cpu_cluster.cpus.statFuBusy::No_OpClass            0      0.00%      0.00% # attempts to use FU when none available (Count)
system.cpu_cluster.cpus.statFuBusy::IntAlu     25807288     35.34%     35.34% # attempts to use FU when none available (Count)
system.cpu_cluster.cpus.statFuBusy::IntMult          820      0.00%     35.34% # attempts to use FU when none available (Count)
system.cpu_cluster.cpus.statFuBusy::IntDiv        12723      0.02%     35.35% # attempts to use FU when none available (Count)
system.cpu_cluster.cpus.statFuBusy::FloatAdd            0      0.00%     35.35% # attempts to use FU when none available (Count)
system.cpu_cluster.cpus.statFuBusy::FloatCmp            0      0.00%     35.35% # attempts to use FU when none available (Count)
system.cpu_cluster.cpus.statFuBusy::FloatCvt            0      0.00%     35.35% # attempts to use FU when none available (Count)
system.cpu_cluster.cpus.statFuBusy::FloatMult            0      0.00%     35.35% # attempts to use FU when none available (Count)
system.cpu_cluster.cpus.statFuBusy::FloatMultAcc            0      0.00%     35.35% # attempts to use FU when none available (Count)
system.cpu_cluster.cpus.statFuBusy::FloatDiv            0      0.00%     35.35% # attempts to use FU when none available (Count)
system.cpu_cluster.cpus.statFuBusy::FloatMisc            1      0.00%     35.35% # attempts to use FU when none available (Count)
system.cpu_cluster.cpus.statFuBusy::FloatSqrt            0      0.00%     35.35% # attempts to use FU when none available (Count)
system.cpu_cluster.cpus.statFuBusy::SimdAdd            0      0.00%     35.35% # attempts to use FU when none available (Count)
system.cpu_cluster.cpus.statFuBusy::SimdAddAcc            0      0.00%     35.35% # attempts to use FU when none available (Count)
system.cpu_cluster.cpus.statFuBusy::SimdAlu            1      0.00%     35.35% # attempts to use FU when none available (Count)
system.cpu_cluster.cpus.statFuBusy::SimdCmp            0      0.00%     35.35% # attempts to use FU when none available (Count)
system.cpu_cluster.cpus.statFuBusy::SimdCvt            0      0.00%     35.35% # attempts to use FU when none available (Count)
system.cpu_cluster.cpus.statFuBusy::SimdMisc            0      0.00%     35.35% # attempts to use FU when none available (Count)
system.cpu_cluster.cpus.statFuBusy::SimdMult            0      0.00%     35.35% # attempts to use FU when none available (Count)
system.cpu_cluster.cpus.statFuBusy::SimdMultAcc            0      0.00%     35.35% # attempts to use FU when none available (Count)
system.cpu_cluster.cpus.statFuBusy::SimdMatMultAcc            0      0.00%     35.35% # attempts to use FU when none available (Count)
system.cpu_cluster.cpus.statFuBusy::SimdShift            0      0.00%     35.35% # attempts to use FU when none available (Count)
system.cpu_cluster.cpus.statFuBusy::SimdShiftAcc            0      0.00%     35.35% # attempts to use FU when none available (Count)
system.cpu_cluster.cpus.statFuBusy::SimdDiv            0      0.00%     35.35% # attempts to use FU when none available (Count)
system.cpu_cluster.cpus.statFuBusy::SimdSqrt            0      0.00%     35.35% # attempts to use FU when none available (Count)
system.cpu_cluster.cpus.statFuBusy::SimdFloatAdd            0      0.00%     35.35% # attempts to use FU when none available (Count)
system.cpu_cluster.cpus.statFuBusy::SimdFloatAlu            0      0.00%     35.35% # attempts to use FU when none available (Count)
system.cpu_cluster.cpus.statFuBusy::SimdFloatCmp            0      0.00%     35.35% # attempts to use FU when none available (Count)
system.cpu_cluster.cpus.statFuBusy::SimdFloatCvt            0      0.00%     35.35% # attempts to use FU when none available (Count)
system.cpu_cluster.cpus.statFuBusy::SimdFloatDiv            0      0.00%     35.35% # attempts to use FU when none available (Count)
system.cpu_cluster.cpus.statFuBusy::SimdFloatMisc            0      0.00%     35.35% # attempts to use FU when none available (Count)
system.cpu_cluster.cpus.statFuBusy::SimdFloatMult            0      0.00%     35.35% # attempts to use FU when none available (Count)
system.cpu_cluster.cpus.statFuBusy::SimdFloatMultAcc            0      0.00%     35.35% # attempts to use FU when none available (Count)
system.cpu_cluster.cpus.statFuBusy::SimdFloatMatMultAcc            0      0.00%     35.35% # attempts to use FU when none available (Count)
system.cpu_cluster.cpus.statFuBusy::SimdFloatSqrt            0      0.00%     35.35% # attempts to use FU when none available (Count)
system.cpu_cluster.cpus.statFuBusy::SimdReduceAdd            0      0.00%     35.35% # attempts to use FU when none available (Count)
system.cpu_cluster.cpus.statFuBusy::SimdReduceAlu            0      0.00%     35.35% # attempts to use FU when none available (Count)
system.cpu_cluster.cpus.statFuBusy::SimdReduceCmp            0      0.00%     35.35% # attempts to use FU when none available (Count)
system.cpu_cluster.cpus.statFuBusy::SimdFloatReduceAdd            0      0.00%     35.35% # attempts to use FU when none available (Count)
system.cpu_cluster.cpus.statFuBusy::SimdFloatReduceCmp            0      0.00%     35.35% # attempts to use FU when none available (Count)
system.cpu_cluster.cpus.statFuBusy::SimdAes            0      0.00%     35.35% # attempts to use FU when none available (Count)
system.cpu_cluster.cpus.statFuBusy::SimdAesMix            0      0.00%     35.35% # attempts to use FU when none available (Count)
system.cpu_cluster.cpus.statFuBusy::SimdSha1Hash            0      0.00%     35.35% # attempts to use FU when none available (Count)
system.cpu_cluster.cpus.statFuBusy::SimdSha1Hash2            0      0.00%     35.35% # attempts to use FU when none available (Count)
system.cpu_cluster.cpus.statFuBusy::SimdSha256Hash            0      0.00%     35.35% # attempts to use FU when none available (Count)
system.cpu_cluster.cpus.statFuBusy::SimdSha256Hash2            0      0.00%     35.35% # attempts to use FU when none available (Count)
system.cpu_cluster.cpus.statFuBusy::SimdShaSigma2            0      0.00%     35.35% # attempts to use FU when none available (Count)
system.cpu_cluster.cpus.statFuBusy::SimdShaSigma3            0      0.00%     35.35% # attempts to use FU when none available (Count)
system.cpu_cluster.cpus.statFuBusy::SimdPredAlu            0      0.00%     35.35% # attempts to use FU when none available (Count)
system.cpu_cluster.cpus.statFuBusy::Matrix            0      0.00%     35.35% # attempts to use FU when none available (Count)
system.cpu_cluster.cpus.statFuBusy::MatrixMov            0      0.00%     35.35% # attempts to use FU when none available (Count)
system.cpu_cluster.cpus.statFuBusy::MatrixOP            0      0.00%     35.35% # attempts to use FU when none available (Count)
system.cpu_cluster.cpus.statFuBusy::MemRead     35627238     48.78%     84.14% # attempts to use FU when none available (Count)
system.cpu_cluster.cpus.statFuBusy::MemWrite     11586148     15.86%    100.00% # attempts to use FU when none available (Count)
system.cpu_cluster.cpus.statFuBusy::FloatMemRead            0      0.00%    100.00% # attempts to use FU when none available (Count)
system.cpu_cluster.cpus.statFuBusy::FloatMemWrite            0      0.00%    100.00% # attempts to use FU when none available (Count)
system.cpu_cluster.cpus.statFuBusy::IprAccess            0      0.00%    100.00% # attempts to use FU when none available (Count)
system.cpu_cluster.cpus.statFuBusy::InstPrefetch            0      0.00%    100.00% # attempts to use FU when none available (Count)
system.cpu_cluster.cpus.statFuBusy::SimdUnitStrideLoad            0      0.00%    100.00% # attempts to use FU when none available (Count)
system.cpu_cluster.cpus.statFuBusy::SimdUnitStrideStore            0      0.00%    100.00% # attempts to use FU when none available (Count)
system.cpu_cluster.cpus.statFuBusy::SimdUnitStrideMaskLoad            0      0.00%    100.00% # attempts to use FU when none available (Count)
system.cpu_cluster.cpus.statFuBusy::SimdUnitStrideMaskStore            0      0.00%    100.00% # attempts to use FU when none available (Count)
system.cpu_cluster.cpus.statFuBusy::SimdStridedLoad            0      0.00%    100.00% # attempts to use FU when none available (Count)
system.cpu_cluster.cpus.statFuBusy::SimdStridedStore            0      0.00%    100.00% # attempts to use FU when none available (Count)
system.cpu_cluster.cpus.statFuBusy::SimdIndexedLoad            0      0.00%    100.00% # attempts to use FU when none available (Count)
system.cpu_cluster.cpus.statFuBusy::SimdIndexedStore            0      0.00%    100.00% # attempts to use FU when none available (Count)
system.cpu_cluster.cpus.statFuBusy::SimdWholeRegisterLoad            0      0.00%    100.00% # attempts to use FU when none available (Count)
system.cpu_cluster.cpus.statFuBusy::SimdWholeRegisterStore            0      0.00%    100.00% # attempts to use FU when none available (Count)
system.cpu_cluster.cpus.statFuBusy::SimdUnitStrideFaultOnlyFirstLoad            0      0.00%    100.00% # attempts to use FU when none available (Count)
system.cpu_cluster.cpus.statFuBusy::SimdUnitStrideSegmentedLoad            0      0.00%    100.00% # attempts to use FU when none available (Count)
system.cpu_cluster.cpus.statFuBusy::SimdUnitStrideSegmentedStore            0      0.00%    100.00% # attempts to use FU when none available (Count)
system.cpu_cluster.cpus.statFuBusy::SimdExt            0      0.00%    100.00% # attempts to use FU when none available (Count)
system.cpu_cluster.cpus.statFuBusy::SimdFloatExt            0      0.00%    100.00% # attempts to use FU when none available (Count)
system.cpu_cluster.cpus.statFuBusy::SimdConfig            0      0.00%    100.00% # attempts to use FU when none available (Count)
system.cpu_cluster.cpus.statIssuedInstType_0::No_OpClass          783      0.00%      0.00% # Number of instructions issued per FU type, per thread (Count)
system.cpu_cluster.cpus.statIssuedInstType_0::IntAlu    237157686     60.02%     60.02% # Number of instructions issued per FU type, per thread (Count)
system.cpu_cluster.cpus.statIssuedInstType_0::IntMult      2648204      0.67%     60.69% # Number of instructions issued per FU type, per thread (Count)
system.cpu_cluster.cpus.statIssuedInstType_0::IntDiv      2623501      0.66%     61.35% # Number of instructions issued per FU type, per thread (Count)
system.cpu_cluster.cpus.statIssuedInstType_0::FloatAdd            0      0.00%     61.35% # Number of instructions issued per FU type, per thread (Count)
system.cpu_cluster.cpus.statIssuedInstType_0::FloatCmp            9      0.00%     61.35% # Number of instructions issued per FU type, per thread (Count)
system.cpu_cluster.cpus.statIssuedInstType_0::FloatCvt           15      0.00%     61.35% # Number of instructions issued per FU type, per thread (Count)
system.cpu_cluster.cpus.statIssuedInstType_0::FloatMult            6      0.00%     61.35% # Number of instructions issued per FU type, per thread (Count)
system.cpu_cluster.cpus.statIssuedInstType_0::FloatMultAcc            0      0.00%     61.35% # Number of instructions issued per FU type, per thread (Count)
system.cpu_cluster.cpus.statIssuedInstType_0::FloatDiv            5      0.00%     61.35% # Number of instructions issued per FU type, per thread (Count)
system.cpu_cluster.cpus.statIssuedInstType_0::FloatMisc            8      0.00%     61.35% # Number of instructions issued per FU type, per thread (Count)
system.cpu_cluster.cpus.statIssuedInstType_0::FloatSqrt            0      0.00%     61.35% # Number of instructions issued per FU type, per thread (Count)
system.cpu_cluster.cpus.statIssuedInstType_0::SimdAdd           43      0.00%     61.35% # Number of instructions issued per FU type, per thread (Count)
system.cpu_cluster.cpus.statIssuedInstType_0::SimdAddAcc            0      0.00%     61.35% # Number of instructions issued per FU type, per thread (Count)
system.cpu_cluster.cpus.statIssuedInstType_0::SimdAlu           77      0.00%     61.35% # Number of instructions issued per FU type, per thread (Count)
system.cpu_cluster.cpus.statIssuedInstType_0::SimdCmp           56      0.00%     61.35% # Number of instructions issued per FU type, per thread (Count)
system.cpu_cluster.cpus.statIssuedInstType_0::SimdCvt            0      0.00%     61.35% # Number of instructions issued per FU type, per thread (Count)
system.cpu_cluster.cpus.statIssuedInstType_0::SimdMisc           77      0.00%     61.35% # Number of instructions issued per FU type, per thread (Count)
system.cpu_cluster.cpus.statIssuedInstType_0::SimdMult            0      0.00%     61.35% # Number of instructions issued per FU type, per thread (Count)
system.cpu_cluster.cpus.statIssuedInstType_0::SimdMultAcc            0      0.00%     61.35% # Number of instructions issued per FU type, per thread (Count)
system.cpu_cluster.cpus.statIssuedInstType_0::SimdMatMultAcc            0      0.00%     61.35% # Number of instructions issued per FU type, per thread (Count)
system.cpu_cluster.cpus.statIssuedInstType_0::SimdShift            0      0.00%     61.35% # Number of instructions issued per FU type, per thread (Count)
system.cpu_cluster.cpus.statIssuedInstType_0::SimdShiftAcc            0      0.00%     61.35% # Number of instructions issued per FU type, per thread (Count)
system.cpu_cluster.cpus.statIssuedInstType_0::SimdDiv            0      0.00%     61.35% # Number of instructions issued per FU type, per thread (Count)
system.cpu_cluster.cpus.statIssuedInstType_0::SimdSqrt            0      0.00%     61.35% # Number of instructions issued per FU type, per thread (Count)
system.cpu_cluster.cpus.statIssuedInstType_0::SimdFloatAdd            0      0.00%     61.35% # Number of instructions issued per FU type, per thread (Count)
system.cpu_cluster.cpus.statIssuedInstType_0::SimdFloatAlu            0      0.00%     61.35% # Number of instructions issued per FU type, per thread (Count)
system.cpu_cluster.cpus.statIssuedInstType_0::SimdFloatCmp            0      0.00%     61.35% # Number of instructions issued per FU type, per thread (Count)
system.cpu_cluster.cpus.statIssuedInstType_0::SimdFloatCvt            0      0.00%     61.35% # Number of instructions issued per FU type, per thread (Count)
system.cpu_cluster.cpus.statIssuedInstType_0::SimdFloatDiv            0      0.00%     61.35% # Number of instructions issued per FU type, per thread (Count)
system.cpu_cluster.cpus.statIssuedInstType_0::SimdFloatMisc            0      0.00%     61.35% # Number of instructions issued per FU type, per thread (Count)
system.cpu_cluster.cpus.statIssuedInstType_0::SimdFloatMult            0      0.00%     61.35% # Number of instructions issued per FU type, per thread (Count)
system.cpu_cluster.cpus.statIssuedInstType_0::SimdFloatMultAcc            0      0.00%     61.35% # Number of instructions issued per FU type, per thread (Count)
system.cpu_cluster.cpus.statIssuedInstType_0::SimdFloatMatMultAcc            0      0.00%     61.35% # Number of instructions issued per FU type, per thread (Count)
system.cpu_cluster.cpus.statIssuedInstType_0::SimdFloatSqrt            0      0.00%     61.35% # Number of instructions issued per FU type, per thread (Count)
system.cpu_cluster.cpus.statIssuedInstType_0::SimdReduceAdd            0      0.00%     61.35% # Number of instructions issued per FU type, per thread (Count)
system.cpu_cluster.cpus.statIssuedInstType_0::SimdReduceAlu            0      0.00%     61.35% # Number of instructions issued per FU type, per thread (Count)
system.cpu_cluster.cpus.statIssuedInstType_0::SimdReduceCmp            0      0.00%     61.35% # Number of instructions issued per FU type, per thread (Count)
system.cpu_cluster.cpus.statIssuedInstType_0::SimdFloatReduceAdd            0      0.00%     61.35% # Number of instructions issued per FU type, per thread (Count)
system.cpu_cluster.cpus.statIssuedInstType_0::SimdFloatReduceCmp            0      0.00%     61.35% # Number of instructions issued per FU type, per thread (Count)
system.cpu_cluster.cpus.statIssuedInstType_0::SimdAes            0      0.00%     61.35% # Number of instructions issued per FU type, per thread (Count)
system.cpu_cluster.cpus.statIssuedInstType_0::SimdAesMix            0      0.00%     61.35% # Number of instructions issued per FU type, per thread (Count)
system.cpu_cluster.cpus.statIssuedInstType_0::SimdSha1Hash            0      0.00%     61.35% # Number of instructions issued per FU type, per thread (Count)
system.cpu_cluster.cpus.statIssuedInstType_0::SimdSha1Hash2            0      0.00%     61.35% # Number of instructions issued per FU type, per thread (Count)
system.cpu_cluster.cpus.statIssuedInstType_0::SimdSha256Hash            0      0.00%     61.35% # Number of instructions issued per FU type, per thread (Count)
system.cpu_cluster.cpus.statIssuedInstType_0::SimdSha256Hash2            0      0.00%     61.35% # Number of instructions issued per FU type, per thread (Count)
system.cpu_cluster.cpus.statIssuedInstType_0::SimdShaSigma2            0      0.00%     61.35% # Number of instructions issued per FU type, per thread (Count)
system.cpu_cluster.cpus.statIssuedInstType_0::SimdShaSigma3            0      0.00%     61.35% # Number of instructions issued per FU type, per thread (Count)
system.cpu_cluster.cpus.statIssuedInstType_0::SimdPredAlu            0      0.00%     61.35% # Number of instructions issued per FU type, per thread (Count)
system.cpu_cluster.cpus.statIssuedInstType_0::Matrix            0      0.00%     61.35% # Number of instructions issued per FU type, per thread (Count)
system.cpu_cluster.cpus.statIssuedInstType_0::MatrixMov            0      0.00%     61.35% # Number of instructions issued per FU type, per thread (Count)
system.cpu_cluster.cpus.statIssuedInstType_0::MatrixOP            0      0.00%     61.35% # Number of instructions issued per FU type, per thread (Count)
system.cpu_cluster.cpus.statIssuedInstType_0::MemRead    105294469     26.65%     88.00% # Number of instructions issued per FU type, per thread (Count)
system.cpu_cluster.cpus.statIssuedInstType_0::MemWrite     47417512     12.00%    100.00% # Number of instructions issued per FU type, per thread (Count)
system.cpu_cluster.cpus.statIssuedInstType_0::FloatMemRead            0      0.00%    100.00% # Number of instructions issued per FU type, per thread (Count)
system.cpu_cluster.cpus.statIssuedInstType_0::FloatMemWrite            0      0.00%    100.00% # Number of instructions issued per FU type, per thread (Count)
system.cpu_cluster.cpus.statIssuedInstType_0::IprAccess            0      0.00%    100.00% # Number of instructions issued per FU type, per thread (Count)
system.cpu_cluster.cpus.statIssuedInstType_0::InstPrefetch            0      0.00%    100.00% # Number of instructions issued per FU type, per thread (Count)
system.cpu_cluster.cpus.statIssuedInstType_0::SimdUnitStrideLoad            0      0.00%    100.00% # Number of instructions issued per FU type, per thread (Count)
system.cpu_cluster.cpus.statIssuedInstType_0::SimdUnitStrideStore            0      0.00%    100.00% # Number of instructions issued per FU type, per thread (Count)
system.cpu_cluster.cpus.statIssuedInstType_0::SimdUnitStrideMaskLoad            0      0.00%    100.00% # Number of instructions issued per FU type, per thread (Count)
system.cpu_cluster.cpus.statIssuedInstType_0::SimdUnitStrideMaskStore            0      0.00%    100.00% # Number of instructions issued per FU type, per thread (Count)
system.cpu_cluster.cpus.statIssuedInstType_0::SimdStridedLoad            0      0.00%    100.00% # Number of instructions issued per FU type, per thread (Count)
system.cpu_cluster.cpus.statIssuedInstType_0::SimdStridedStore            0      0.00%    100.00% # Number of instructions issued per FU type, per thread (Count)
system.cpu_cluster.cpus.statIssuedInstType_0::SimdIndexedLoad            0      0.00%    100.00% # Number of instructions issued per FU type, per thread (Count)
system.cpu_cluster.cpus.statIssuedInstType_0::SimdIndexedStore            0      0.00%    100.00% # Number of instructions issued per FU type, per thread (Count)
system.cpu_cluster.cpus.statIssuedInstType_0::SimdWholeRegisterLoad            0      0.00%    100.00% # Number of instructions issued per FU type, per thread (Count)
system.cpu_cluster.cpus.statIssuedInstType_0::SimdWholeRegisterStore            0      0.00%    100.00% # Number of instructions issued per FU type, per thread (Count)
system.cpu_cluster.cpus.statIssuedInstType_0::SimdUnitStrideFaultOnlyFirstLoad            0      0.00%    100.00% # Number of instructions issued per FU type, per thread (Count)
system.cpu_cluster.cpus.statIssuedInstType_0::SimdUnitStrideSegmentedLoad            0      0.00%    100.00% # Number of instructions issued per FU type, per thread (Count)
system.cpu_cluster.cpus.statIssuedInstType_0::SimdUnitStrideSegmentedStore            0      0.00%    100.00% # Number of instructions issued per FU type, per thread (Count)
system.cpu_cluster.cpus.statIssuedInstType_0::SimdExt            0      0.00%    100.00% # Number of instructions issued per FU type, per thread (Count)
system.cpu_cluster.cpus.statIssuedInstType_0::SimdFloatExt            0      0.00%    100.00% # Number of instructions issued per FU type, per thread (Count)
system.cpu_cluster.cpus.statIssuedInstType_0::SimdConfig            0      0.00%    100.00% # Number of instructions issued per FU type, per thread (Count)
system.cpu_cluster.cpus.statIssuedInstType_0::total    395142451                       # Number of instructions issued per FU type, per thread (Count)
system.cpu_cluster.cpus.issueRate            0.068317                       # Inst issue rate ((Count/Cycle))
system.cpu_cluster.cpus.fuBusy               73034219                       # FU busy when requested (Count)
system.cpu_cluster.cpus.fuBusyRate           0.184830                       # FU busy rate (busy events/executed inst) ((Count/Count))
system.cpu_cluster.cpus.intInstQueueReads   6640909099                       # Number of integer instruction queue reads (Count)
system.cpu_cluster.cpus.intInstQueueWrites    379890751                       # Number of integer instruction queue writes (Count)
system.cpu_cluster.cpus.intInstQueueWakeupAccesses    376051958                       # Number of integer instruction queue wakeup accesses (Count)
system.cpu_cluster.cpus.fpInstQueueReads            0                       # Number of floating instruction queue reads (Count)
system.cpu_cluster.cpus.fpInstQueueWrites            0                       # Number of floating instruction queue writes (Count)
system.cpu_cluster.cpus.fpInstQueueWakeupAccesses            0                       # Number of floating instruction queue wakeup accesses (Count)
system.cpu_cluster.cpus.vecInstQueueReads         6056                       # Number of vector instruction queue reads (Count)
system.cpu_cluster.cpus.vecInstQueueWrites         2618                       # Number of vector instruction queue writes (Count)
system.cpu_cluster.cpus.vecInstQueueWakeupAccesses         2349                       # Number of vector instruction queue wakeup accesses (Count)
system.cpu_cluster.cpus.intAluAccesses      468172314                       # Number of integer alu accesses (Count)
system.cpu_cluster.cpus.fpAluAccesses               0                       # Number of floating point alu accesses (Count)
system.cpu_cluster.cpus.vecAluAccesses           3573                       # Number of vector alu accesses (Count)
system.cpu_cluster.cpus.numSquashedInsts       265384                       # Number of squashed instructions skipped in execute (Count)
system.cpu_cluster.cpus.numSwp                      0                       # Number of swp insts executed (Count)
system.cpu_cluster.cpus.timesIdled              33668                       # Number of times that the entire CPU went into an idle state and unscheduled itself (Count)
system.cpu_cluster.cpus.idleCycles            6783633                       # Total number of cycles that the CPU has spent unscheduled due to idling (Cycle)
system.cpu_cluster.cpus.quiesceCycles              23                       # Total number of cycles that CPU has spent quiesced or waiting for an interrupt (Cycle)
system.cpu_cluster.cpus.MemDepUnit__0.insertedLoads     86579959                       # Number of loads inserted to the mem dependence unit. (Count)
system.cpu_cluster.cpus.MemDepUnit__0.insertedStores     47786504                       # Number of stores inserted to the mem dependence unit. (Count)
system.cpu_cluster.cpus.MemDepUnit__0.conflictingLoads       136308                       # Number of conflicting loads. (Count)
system.cpu_cluster.cpus.MemDepUnit__0.conflictingStores        78907                       # Number of conflicting stores. (Count)
system.cpu_cluster.cpus.MemDepUnit__1.insertedLoads            0                       # Number of loads inserted to the mem dependence unit. (Count)
system.cpu_cluster.cpus.MemDepUnit__1.insertedStores            0                       # Number of stores inserted to the mem dependence unit. (Count)
system.cpu_cluster.cpus.MemDepUnit__1.conflictingLoads            0                       # Number of conflicting loads. (Count)
system.cpu_cluster.cpus.MemDepUnit__1.conflictingStores            0                       # Number of conflicting stores. (Count)
system.cpu_cluster.cpus.MemDepUnit__2.insertedLoads            0                       # Number of loads inserted to the mem dependence unit. (Count)
system.cpu_cluster.cpus.MemDepUnit__2.insertedStores            0                       # Number of stores inserted to the mem dependence unit. (Count)
system.cpu_cluster.cpus.MemDepUnit__2.conflictingLoads            0                       # Number of conflicting loads. (Count)
system.cpu_cluster.cpus.MemDepUnit__2.conflictingStores            0                       # Number of conflicting stores. (Count)
system.cpu_cluster.cpus.MemDepUnit__3.insertedLoads            0                       # Number of loads inserted to the mem dependence unit. (Count)
system.cpu_cluster.cpus.MemDepUnit__3.insertedStores            0                       # Number of stores inserted to the mem dependence unit. (Count)
system.cpu_cluster.cpus.MemDepUnit__3.conflictingLoads            0                       # Number of conflicting loads. (Count)
system.cpu_cluster.cpus.MemDepUnit__3.conflictingStores            0                       # Number of conflicting stores. (Count)
system.cpu_cluster.cpus.branchPred.lookups_0::NoBranch         3533      0.00%      0.00% # Number of BP lookups (Count)
system.cpu_cluster.cpus.branchPred.lookups_0::Return      6161912      8.17%      8.18% # Number of BP lookups (Count)
system.cpu_cluster.cpus.branchPred.lookups_0::CallDirect      5923020      7.86%     16.03% # Number of BP lookups (Count)
system.cpu_cluster.cpus.branchPred.lookups_0::CallIndirect        49551      0.07%     16.10% # Number of BP lookups (Count)
system.cpu_cluster.cpus.branchPred.lookups_0::DirectCond     57652062     76.47%     92.57% # Number of BP lookups (Count)
system.cpu_cluster.cpus.branchPred.lookups_0::DirectUncond      2807776      3.72%     96.30% # Number of BP lookups (Count)
system.cpu_cluster.cpus.branchPred.lookups_0::IndirectCond            0      0.00%     96.30% # Number of BP lookups (Count)
system.cpu_cluster.cpus.branchPred.lookups_0::IndirectUncond      2791840      3.70%    100.00% # Number of BP lookups (Count)
system.cpu_cluster.cpus.branchPred.lookups_0::total     75389694                       # Number of BP lookups (Count)
system.cpu_cluster.cpus.branchPred.squashes_0::NoBranch          367      0.02%      0.02% # Number of branches that got squashed (completely removed) as an earlier branch was mispredicted. (Count)
system.cpu_cluster.cpus.branchPred.squashes_0::Return       447692     20.36%     20.37% # Number of branches that got squashed (completely removed) as an earlier branch was mispredicted. (Count)
system.cpu_cluster.cpus.branchPred.squashes_0::CallDirect       250807     11.40%     31.78% # Number of branches that got squashed (completely removed) as an earlier branch was mispredicted. (Count)
system.cpu_cluster.cpus.branchPred.squashes_0::CallIndirect         7530      0.34%     32.12% # Number of branches that got squashed (completely removed) as an earlier branch was mispredicted. (Count)
system.cpu_cluster.cpus.branchPred.squashes_0::DirectCond      1126165     51.21%     83.33% # Number of branches that got squashed (completely removed) as an earlier branch was mispredicted. (Count)
system.cpu_cluster.cpus.branchPred.squashes_0::DirectUncond       196574      8.94%     92.26% # Number of branches that got squashed (completely removed) as an earlier branch was mispredicted. (Count)
system.cpu_cluster.cpus.branchPred.squashes_0::IndirectCond            0      0.00%     92.26% # Number of branches that got squashed (completely removed) as an earlier branch was mispredicted. (Count)
system.cpu_cluster.cpus.branchPred.squashes_0::IndirectUncond       170123      7.74%    100.00% # Number of branches that got squashed (completely removed) as an earlier branch was mispredicted. (Count)
system.cpu_cluster.cpus.branchPred.squashes_0::total      2199258                       # Number of branches that got squashed (completely removed) as an earlier branch was mispredicted. (Count)
system.cpu_cluster.cpus.branchPred.corrected_0::NoBranch         3166      1.21%      1.21% # Number of branches that got corrected but not yet commited. Branches get corrected by decode or after execute. Also a branch misprediction can be detected out-of-order. Therefore, a corrected branch might not end up beeing committed in case an even earlier branch was mispredicted (Count)
system.cpu_cluster.cpus.branchPred.corrected_0::Return          302      0.12%      1.33% # Number of branches that got corrected but not yet commited. Branches get corrected by decode or after execute. Also a branch misprediction can be detected out-of-order. Therefore, a corrected branch might not end up beeing committed in case an even earlier branch was mispredicted (Count)
system.cpu_cluster.cpus.branchPred.corrected_0::CallDirect        23477      8.99%     10.32% # Number of branches that got corrected but not yet commited. Branches get corrected by decode or after execute. Also a branch misprediction can be detected out-of-order. Therefore, a corrected branch might not end up beeing committed in case an even earlier branch was mispredicted (Count)
system.cpu_cluster.cpus.branchPred.corrected_0::CallIndirect          752      0.29%     10.60% # Number of branches that got corrected but not yet commited. Branches get corrected by decode or after execute. Also a branch misprediction can be detected out-of-order. Therefore, a corrected branch might not end up beeing committed in case an even earlier branch was mispredicted (Count)
system.cpu_cluster.cpus.branchPred.corrected_0::DirectCond       227137     86.96%     97.56% # Number of branches that got corrected but not yet commited. Branches get corrected by decode or after execute. Also a branch misprediction can be detected out-of-order. Therefore, a corrected branch might not end up beeing committed in case an even earlier branch was mispredicted (Count)
system.cpu_cluster.cpus.branchPred.corrected_0::DirectUncond         6154      2.36%     99.92% # Number of branches that got corrected but not yet commited. Branches get corrected by decode or after execute. Also a branch misprediction can be detected out-of-order. Therefore, a corrected branch might not end up beeing committed in case an even earlier branch was mispredicted (Count)
system.cpu_cluster.cpus.branchPred.corrected_0::IndirectCond            0      0.00%     99.92% # Number of branches that got corrected but not yet commited. Branches get corrected by decode or after execute. Also a branch misprediction can be detected out-of-order. Therefore, a corrected branch might not end up beeing committed in case an even earlier branch was mispredicted (Count)
system.cpu_cluster.cpus.branchPred.corrected_0::IndirectUncond          208      0.08%    100.00% # Number of branches that got corrected but not yet commited. Branches get corrected by decode or after execute. Also a branch misprediction can be detected out-of-order. Therefore, a corrected branch might not end up beeing committed in case an even earlier branch was mispredicted (Count)
system.cpu_cluster.cpus.branchPred.corrected_0::total       261196                       # Number of branches that got corrected but not yet commited. Branches get corrected by decode or after execute. Also a branch misprediction can be detected out-of-order. Therefore, a corrected branch might not end up beeing committed in case an even earlier branch was mispredicted (Count)
system.cpu_cluster.cpus.branchPred.earlyResteers_0::NoBranch            0                       # Number of branches that got redirected after decode. (Count)
system.cpu_cluster.cpus.branchPred.earlyResteers_0::Return            0                       # Number of branches that got redirected after decode. (Count)
system.cpu_cluster.cpus.branchPred.earlyResteers_0::CallDirect            0                       # Number of branches that got redirected after decode. (Count)
system.cpu_cluster.cpus.branchPred.earlyResteers_0::CallIndirect            0                       # Number of branches that got redirected after decode. (Count)
system.cpu_cluster.cpus.branchPred.earlyResteers_0::DirectCond            0                       # Number of branches that got redirected after decode. (Count)
system.cpu_cluster.cpus.branchPred.earlyResteers_0::DirectUncond            0                       # Number of branches that got redirected after decode. (Count)
system.cpu_cluster.cpus.branchPred.earlyResteers_0::IndirectCond            0                       # Number of branches that got redirected after decode. (Count)
system.cpu_cluster.cpus.branchPred.earlyResteers_0::IndirectUncond            0                       # Number of branches that got redirected after decode. (Count)
system.cpu_cluster.cpus.branchPred.earlyResteers_0::total            0                       # Number of branches that got redirected after decode. (Count)
system.cpu_cluster.cpus.branchPred.committed_0::NoBranch         3166      0.00%      0.00% # Number of branches finally committed  (Count)
system.cpu_cluster.cpus.branchPred.committed_0::Return      5714220      7.81%      7.81% # Number of branches finally committed  (Count)
system.cpu_cluster.cpus.branchPred.committed_0::CallDirect      5672213      7.75%     15.56% # Number of branches finally committed  (Count)
system.cpu_cluster.cpus.branchPred.committed_0::CallIndirect        42021      0.06%     15.62% # Number of branches finally committed  (Count)
system.cpu_cluster.cpus.branchPred.committed_0::DirectCond     56525897     77.23%     92.85% # Number of branches finally committed  (Count)
system.cpu_cluster.cpus.branchPred.committed_0::DirectUncond      2611202      3.57%     96.42% # Number of branches finally committed  (Count)
system.cpu_cluster.cpus.branchPred.committed_0::IndirectCond            0      0.00%     96.42% # Number of branches finally committed  (Count)
system.cpu_cluster.cpus.branchPred.committed_0::IndirectUncond      2621717      3.58%    100.00% # Number of branches finally committed  (Count)
system.cpu_cluster.cpus.branchPred.committed_0::total     73190436                       # Number of branches finally committed  (Count)
system.cpu_cluster.cpus.branchPred.mispredicted_0::NoBranch         3166      1.24%      1.24% # Number of committed branches that were mispredicted. (Count)
system.cpu_cluster.cpus.branchPred.mispredicted_0::Return          228      0.09%      1.33% # Number of committed branches that were mispredicted. (Count)
system.cpu_cluster.cpus.branchPred.mispredicted_0::CallDirect        20393      8.00%      9.33% # Number of committed branches that were mispredicted. (Count)
system.cpu_cluster.cpus.branchPred.mispredicted_0::CallIndirect          730      0.29%      9.62% # Number of committed branches that were mispredicted. (Count)
system.cpu_cluster.cpus.branchPred.mispredicted_0::DirectCond       225305     88.40%     98.02% # Number of committed branches that were mispredicted. (Count)
system.cpu_cluster.cpus.branchPred.mispredicted_0::DirectUncond         4876      1.91%     99.93% # Number of committed branches that were mispredicted. (Count)
system.cpu_cluster.cpus.branchPred.mispredicted_0::IndirectCond            0      0.00%     99.93% # Number of committed branches that were mispredicted. (Count)
system.cpu_cluster.cpus.branchPred.mispredicted_0::IndirectUncond          183      0.07%    100.00% # Number of committed branches that were mispredicted. (Count)
system.cpu_cluster.cpus.branchPred.mispredicted_0::total       254881                       # Number of committed branches that were mispredicted. (Count)
system.cpu_cluster.cpus.branchPred.targetProvider_0::NoTarget     22596700     29.97%     29.97% # The component providing the target for taken branches (Count)
system.cpu_cluster.cpus.branchPred.targetProvider_0::BTB     43796428     58.09%     88.07% # The component providing the target for taken branches (Count)
system.cpu_cluster.cpus.branchPred.targetProvider_0::RAS      6161912      8.17%     96.24% # The component providing the target for taken branches (Count)
system.cpu_cluster.cpus.branchPred.targetProvider_0::Indirect      2834654      3.76%    100.00% # The component providing the target for taken branches (Count)
system.cpu_cluster.cpus.branchPred.targetProvider_0::total     75389694                       # The component providing the target for taken branches (Count)
system.cpu_cluster.cpus.branchPred.targetWrong_0::NoBranch        76807     29.41%     29.41% # Number of branches where the target was incorrect or not available at prediction time. (Count)
system.cpu_cluster.cpus.branchPred.targetWrong_0::Return       184009     70.45%     99.85% # Number of branches where the target was incorrect or not available at prediction time. (Count)
system.cpu_cluster.cpus.branchPred.targetWrong_0::CallDirect          302      0.12%     99.97% # Number of branches where the target was incorrect or not available at prediction time. (Count)
system.cpu_cluster.cpus.branchPred.targetWrong_0::CallIndirect           78      0.03%    100.00% # Number of branches where the target was incorrect or not available at prediction time. (Count)
system.cpu_cluster.cpus.branchPred.targetWrong_0::DirectCond            0      0.00%    100.00% # Number of branches where the target was incorrect or not available at prediction time. (Count)
system.cpu_cluster.cpus.branchPred.targetWrong_0::DirectUncond            0      0.00%    100.00% # Number of branches where the target was incorrect or not available at prediction time. (Count)
system.cpu_cluster.cpus.branchPred.targetWrong_0::IndirectCond            0      0.00%    100.00% # Number of branches where the target was incorrect or not available at prediction time. (Count)
system.cpu_cluster.cpus.branchPred.targetWrong_0::IndirectUncond            0      0.00%    100.00% # Number of branches where the target was incorrect or not available at prediction time. (Count)
system.cpu_cluster.cpus.branchPred.targetWrong_0::total       261196                       # Number of branches where the target was incorrect or not available at prediction time. (Count)
system.cpu_cluster.cpus.branchPred.condPredicted     57655595                       # Number of conditional branches predicted (Count)
system.cpu_cluster.cpus.branchPred.condPredictedTaken     35195406                       # Number of conditional branches predicted as taken (Count)
system.cpu_cluster.cpus.branchPred.condIncorrect       261196                       # Number of conditional branches incorrect (Count)
system.cpu_cluster.cpus.branchPred.predTakenBTBMiss        50723                       # Number of branches predicted taken but missed in BTB (Count)
system.cpu_cluster.cpus.branchPred.NotTakenMispredicted        77187                       # Number branches predicted 'not taken' but turned out to be taken (Count)
system.cpu_cluster.cpus.branchPred.TakenMispredicted       184009                       # Number branches predicted taken but are actually not taken (Count)
system.cpu_cluster.cpus.branchPred.BTBLookups     75389694                       # Number of BTB lookups (Count)
system.cpu_cluster.cpus.branchPred.BTBUpdates        72759                       # Number of BTB updates (Count)
system.cpu_cluster.cpus.branchPred.BTBHits     46691587                       # Number of BTB hits (Count)
system.cpu_cluster.cpus.branchPred.BTBHitRatio     0.619336                       # BTB Hit Ratio (Ratio)
system.cpu_cluster.cpus.branchPred.BTBMispredicted        53069                       # Number BTB mispredictions. No target found or target wrong (Count)
system.cpu_cluster.cpus.branchPred.indirectLookups      2841391                       # Number of indirect predictor lookups. (Count)
system.cpu_cluster.cpus.branchPred.indirectHits      2834654                       # Number of indirect target hits. (Count)
system.cpu_cluster.cpus.branchPred.indirectMisses         6737                       # Number of indirect misses. (Count)
system.cpu_cluster.cpus.branchPred.indirectMispredicted            0                       # Number of mispredicted indirect branches. (Count)
system.cpu_cluster.cpus.branchPred.btb.lookups::NoBranch         3533      0.00%      0.00% # Number of BTB lookups (Count)
system.cpu_cluster.cpus.branchPred.btb.lookups::Return      6161912      8.17%      8.18% # Number of BTB lookups (Count)
system.cpu_cluster.cpus.branchPred.btb.lookups::CallDirect      5923020      7.86%     16.03% # Number of BTB lookups (Count)
system.cpu_cluster.cpus.branchPred.btb.lookups::CallIndirect        49551      0.07%     16.10% # Number of BTB lookups (Count)
system.cpu_cluster.cpus.branchPred.btb.lookups::DirectCond     57652062     76.47%     92.57% # Number of BTB lookups (Count)
system.cpu_cluster.cpus.branchPred.btb.lookups::DirectUncond      2807776      3.72%     96.30% # Number of BTB lookups (Count)
system.cpu_cluster.cpus.branchPred.btb.lookups::IndirectCond            0      0.00%     96.30% # Number of BTB lookups (Count)
system.cpu_cluster.cpus.branchPred.btb.lookups::IndirectUncond      2791840      3.70%    100.00% # Number of BTB lookups (Count)
system.cpu_cluster.cpus.branchPred.btb.lookups::total     75389694                       # Number of BTB lookups (Count)
system.cpu_cluster.cpus.branchPred.btb.misses::NoBranch         3533      0.01%      0.01% # Number of BTB misses (Count)
system.cpu_cluster.cpus.branchPred.btb.misses::Return      6161912     21.47%     21.48% # Number of BTB misses (Count)
system.cpu_cluster.cpus.branchPred.btb.misses::CallDirect        33604      0.12%     21.60% # Number of BTB misses (Count)
system.cpu_cluster.cpus.branchPred.btb.misses::CallIndirect        49551      0.17%     21.77% # Number of BTB misses (Count)
system.cpu_cluster.cpus.branchPred.btb.misses::DirectCond     19645734     68.46%     90.23% # Number of BTB misses (Count)
system.cpu_cluster.cpus.branchPred.btb.misses::DirectUncond        11933      0.04%     90.27% # Number of BTB misses (Count)
system.cpu_cluster.cpus.branchPred.btb.misses::IndirectCond            0      0.00%     90.27% # Number of BTB misses (Count)
system.cpu_cluster.cpus.branchPred.btb.misses::IndirectUncond      2791840      9.73%    100.00% # Number of BTB misses (Count)
system.cpu_cluster.cpus.branchPred.btb.misses::total     28698107                       # Number of BTB misses (Count)
system.cpu_cluster.cpus.branchPred.btb.updates::NoBranch            0      0.00%      0.00% # Number of BTB updates (Count)
system.cpu_cluster.cpus.branchPred.btb.updates::Return            0      0.00%      0.00% # Number of BTB updates (Count)
system.cpu_cluster.cpus.branchPred.btb.updates::CallDirect        23477     32.27%     32.27% # Number of BTB updates (Count)
system.cpu_cluster.cpus.branchPred.btb.updates::CallIndirect            0      0.00%     32.27% # Number of BTB updates (Count)
system.cpu_cluster.cpus.branchPred.btb.updates::DirectCond        43128     59.28%     91.54% # Number of BTB updates (Count)
system.cpu_cluster.cpus.branchPred.btb.updates::DirectUncond         6154      8.46%    100.00% # Number of BTB updates (Count)
system.cpu_cluster.cpus.branchPred.btb.updates::IndirectCond            0      0.00%    100.00% # Number of BTB updates (Count)
system.cpu_cluster.cpus.branchPred.btb.updates::IndirectUncond            0      0.00%    100.00% # Number of BTB updates (Count)
system.cpu_cluster.cpus.branchPred.btb.updates::total        72759                       # Number of BTB updates (Count)
system.cpu_cluster.cpus.branchPred.btb.mispredict::NoBranch            0      0.00%      0.00% # Number of BTB mispredictions. No target found or target wrong. (Count)
system.cpu_cluster.cpus.branchPred.btb.mispredict::Return            0      0.00%      0.00% # Number of BTB mispredictions. No target found or target wrong. (Count)
system.cpu_cluster.cpus.branchPred.btb.mispredict::CallDirect        23477     32.27%     32.27% # Number of BTB mispredictions. No target found or target wrong. (Count)
system.cpu_cluster.cpus.branchPred.btb.mispredict::CallIndirect            0      0.00%     32.27% # Number of BTB mispredictions. No target found or target wrong. (Count)
system.cpu_cluster.cpus.branchPred.btb.mispredict::DirectCond        43128     59.28%     91.54% # Number of BTB mispredictions. No target found or target wrong. (Count)
system.cpu_cluster.cpus.branchPred.btb.mispredict::DirectUncond         6154      8.46%    100.00% # Number of BTB mispredictions. No target found or target wrong. (Count)
system.cpu_cluster.cpus.branchPred.btb.mispredict::IndirectCond            0      0.00%    100.00% # Number of BTB mispredictions. No target found or target wrong. (Count)
system.cpu_cluster.cpus.branchPred.btb.mispredict::IndirectUncond            0      0.00%    100.00% # Number of BTB mispredictions. No target found or target wrong. (Count)
system.cpu_cluster.cpus.branchPred.btb.mispredict::total        72759                       # Number of BTB mispredictions. No target found or target wrong. (Count)
system.cpu_cluster.cpus.branchPred.btb.power_state.pwrStateResidencyTicks::UNDEFINED 1677705297750                       # Cumulative time (in ticks) in various power states (Tick)
system.cpu_cluster.cpus.branchPred.indirectBranchPred.lookups      2841391                       # Number of lookups (Count)
system.cpu_cluster.cpus.branchPred.indirectBranchPred.hits      2834654                       # Number of hits of a tag (Count)
system.cpu_cluster.cpus.branchPred.indirectBranchPred.misses         6737                       # Number of misses (Count)
system.cpu_cluster.cpus.branchPred.indirectBranchPred.targetRecords          960                       # Number of targets that where recorded/installed in the cache (Count)
system.cpu_cluster.cpus.branchPred.indirectBranchPred.indirectRecords      2842351                       # Number of indirect branches/calls recorded in the indirect hist (Count)
system.cpu_cluster.cpus.branchPred.indirectBranchPred.speculativeOverflows            0                       # Number of times more than the allowed capacity for speculative branches/calls where in flight and destroy the path history (Count)
system.cpu_cluster.cpus.branchPred.ras.pushes      6420263                       # Number of times a PC was pushed onto the RAS (Count)
system.cpu_cluster.cpus.branchPred.ras.pops      6420249                       # Number of times a PC was poped from the RAS (Count)
system.cpu_cluster.cpus.branchPred.ras.squashes       706029                       # Number of times the stack operation was squashed due to wrong speculation. (Count)
system.cpu_cluster.cpus.branchPred.ras.used      5714220                       # Number of times the RAS is the provider (Count)
system.cpu_cluster.cpus.branchPred.ras.correct      5713992                       # Number of times the RAS is the provider and the prediction is correct (Count)
system.cpu_cluster.cpus.branchPred.ras.incorrect          228                       # Number of times the RAS is the provider and the prediction is wrong (Count)
system.cpu_cluster.cpus.commit.commitSquashedInsts      1802179                       # The number of squashed insts skipped by commit (Count)
system.cpu_cluster.cpus.commit.commitNonSpecStalls      5351289                       # The number of times commit has been forced to stall to communicate backwards (Count)
system.cpu_cluster.cpus.commit.branchMispredicts       231900                       # The number of times a branch was mispredicted (Count)
system.cpu_cluster.cpus.commit.numCommittedDist::samples   5776886905                       # Number of insts commited each cycle (Count)
system.cpu_cluster.cpus.commit.numCommittedDist::mean     0.064931                       # Number of insts commited each cycle (Count)
system.cpu_cluster.cpus.commit.numCommittedDist::stdev     0.523483                       # Number of insts commited each cycle (Count)
system.cpu_cluster.cpus.commit.numCommittedDist::underflows            0      0.00%      0.00% # Number of insts commited each cycle (Count)
system.cpu_cluster.cpus.commit.numCommittedDist::0   5627664988     97.42%     97.42% # Number of insts commited each cycle (Count)
system.cpu_cluster.cpus.commit.numCommittedDist::1     72768786      1.26%     98.68% # Number of insts commited each cycle (Count)
system.cpu_cluster.cpus.commit.numCommittedDist::2     26776692      0.46%     99.14% # Number of insts commited each cycle (Count)
system.cpu_cluster.cpus.commit.numCommittedDist::3     12038286      0.21%     99.35% # Number of insts commited each cycle (Count)
system.cpu_cluster.cpus.commit.numCommittedDist::4     15341369      0.27%     99.61% # Number of insts commited each cycle (Count)
system.cpu_cluster.cpus.commit.numCommittedDist::5      8664523      0.15%     99.76% # Number of insts commited each cycle (Count)
system.cpu_cluster.cpus.commit.numCommittedDist::6       446188      0.01%     99.77% # Number of insts commited each cycle (Count)
system.cpu_cluster.cpus.commit.numCommittedDist::7       189539      0.00%     99.78% # Number of insts commited each cycle (Count)
system.cpu_cluster.cpus.commit.numCommittedDist::8     12996534      0.22%    100.00% # Number of insts commited each cycle (Count)
system.cpu_cluster.cpus.commit.numCommittedDist::overflows            0      0.00%    100.00% # Number of insts commited each cycle (Count)
system.cpu_cluster.cpus.commit.numCommittedDist::min_value            0                       # Number of insts commited each cycle (Count)
system.cpu_cluster.cpus.commit.numCommittedDist::max_value            8                       # Number of insts commited each cycle (Count)
system.cpu_cluster.cpus.commit.numCommittedDist::total   5776886905                       # Number of insts commited each cycle (Count)
system.cpu_cluster.cpus.commit.amos                 0                       # Number of atomic instructions committed (Count)
system.cpu_cluster.cpus.commit.membars        5302031                       # Number of memory barriers committed (Count)
system.cpu_cluster.cpus.commit.functionCalls      5714234                       # Number of function calls committed. (Count)
system.cpu_cluster.cpus.commit.committedInstType_0::No_OpClass           14      0.00%      0.00% # Class of committed instruction (Count)
system.cpu_cluster.cpus.commit.committedInstType_0::IntAlu    236061722     62.93%     62.93% # Class of committed instruction (Count)
system.cpu_cluster.cpus.commit.committedInstType_0::IntMult      2644532      0.71%     63.64% # Class of committed instruction (Count)
system.cpu_cluster.cpus.commit.committedInstType_0::IntDiv      2623427      0.70%     64.34% # Class of committed instruction (Count)
system.cpu_cluster.cpus.commit.committedInstType_0::FloatAdd            0      0.00%     64.34% # Class of committed instruction (Count)
system.cpu_cluster.cpus.commit.committedInstType_0::FloatCmp            9      0.00%     64.34% # Class of committed instruction (Count)
system.cpu_cluster.cpus.commit.committedInstType_0::FloatCvt           15      0.00%     64.34% # Class of committed instruction (Count)
system.cpu_cluster.cpus.commit.committedInstType_0::FloatMult            6      0.00%     64.34% # Class of committed instruction (Count)
system.cpu_cluster.cpus.commit.committedInstType_0::FloatMultAcc            0      0.00%     64.34% # Class of committed instruction (Count)
system.cpu_cluster.cpus.commit.committedInstType_0::FloatDiv            5      0.00%     64.34% # Class of committed instruction (Count)
system.cpu_cluster.cpus.commit.committedInstType_0::FloatMisc            8      0.00%     64.34% # Class of committed instruction (Count)
system.cpu_cluster.cpus.commit.committedInstType_0::FloatSqrt            0      0.00%     64.34% # Class of committed instruction (Count)
system.cpu_cluster.cpus.commit.committedInstType_0::SimdAdd           43      0.00%     64.34% # Class of committed instruction (Count)
system.cpu_cluster.cpus.commit.committedInstType_0::SimdAddAcc            0      0.00%     64.34% # Class of committed instruction (Count)
system.cpu_cluster.cpus.commit.committedInstType_0::SimdAlu           77      0.00%     64.34% # Class of committed instruction (Count)
system.cpu_cluster.cpus.commit.committedInstType_0::SimdCmp           56      0.00%     64.34% # Class of committed instruction (Count)
system.cpu_cluster.cpus.commit.committedInstType_0::SimdCvt            0      0.00%     64.34% # Class of committed instruction (Count)
system.cpu_cluster.cpus.commit.committedInstType_0::SimdMisc           66      0.00%     64.34% # Class of committed instruction (Count)
system.cpu_cluster.cpus.commit.committedInstType_0::SimdMult            0      0.00%     64.34% # Class of committed instruction (Count)
system.cpu_cluster.cpus.commit.committedInstType_0::SimdMultAcc            0      0.00%     64.34% # Class of committed instruction (Count)
system.cpu_cluster.cpus.commit.committedInstType_0::SimdMatMultAcc            0      0.00%     64.34% # Class of committed instruction (Count)
system.cpu_cluster.cpus.commit.committedInstType_0::SimdShift            0      0.00%     64.34% # Class of committed instruction (Count)
system.cpu_cluster.cpus.commit.committedInstType_0::SimdShiftAcc            0      0.00%     64.34% # Class of committed instruction (Count)
system.cpu_cluster.cpus.commit.committedInstType_0::SimdDiv            0      0.00%     64.34% # Class of committed instruction (Count)
system.cpu_cluster.cpus.commit.committedInstType_0::SimdSqrt            0      0.00%     64.34% # Class of committed instruction (Count)
system.cpu_cluster.cpus.commit.committedInstType_0::SimdFloatAdd            0      0.00%     64.34% # Class of committed instruction (Count)
system.cpu_cluster.cpus.commit.committedInstType_0::SimdFloatAlu            0      0.00%     64.34% # Class of committed instruction (Count)
system.cpu_cluster.cpus.commit.committedInstType_0::SimdFloatCmp            0      0.00%     64.34% # Class of committed instruction (Count)
system.cpu_cluster.cpus.commit.committedInstType_0::SimdFloatCvt            0      0.00%     64.34% # Class of committed instruction (Count)
system.cpu_cluster.cpus.commit.committedInstType_0::SimdFloatDiv            0      0.00%     64.34% # Class of committed instruction (Count)
system.cpu_cluster.cpus.commit.committedInstType_0::SimdFloatMisc            0      0.00%     64.34% # Class of committed instruction (Count)
system.cpu_cluster.cpus.commit.committedInstType_0::SimdFloatMult            0      0.00%     64.34% # Class of committed instruction (Count)
system.cpu_cluster.cpus.commit.committedInstType_0::SimdFloatMultAcc            0      0.00%     64.34% # Class of committed instruction (Count)
system.cpu_cluster.cpus.commit.committedInstType_0::SimdFloatMatMultAcc            0      0.00%     64.34% # Class of committed instruction (Count)
system.cpu_cluster.cpus.commit.committedInstType_0::SimdFloatSqrt            0      0.00%     64.34% # Class of committed instruction (Count)
system.cpu_cluster.cpus.commit.committedInstType_0::SimdReduceAdd            0      0.00%     64.34% # Class of committed instruction (Count)
system.cpu_cluster.cpus.commit.committedInstType_0::SimdReduceAlu            0      0.00%     64.34% # Class of committed instruction (Count)
system.cpu_cluster.cpus.commit.committedInstType_0::SimdReduceCmp            0      0.00%     64.34% # Class of committed instruction (Count)
system.cpu_cluster.cpus.commit.committedInstType_0::SimdFloatReduceAdd            0      0.00%     64.34% # Class of committed instruction (Count)
system.cpu_cluster.cpus.commit.committedInstType_0::SimdFloatReduceCmp            0      0.00%     64.34% # Class of committed instruction (Count)
system.cpu_cluster.cpus.commit.committedInstType_0::SimdAes            0      0.00%     64.34% # Class of committed instruction (Count)
system.cpu_cluster.cpus.commit.committedInstType_0::SimdAesMix            0      0.00%     64.34% # Class of committed instruction (Count)
system.cpu_cluster.cpus.commit.committedInstType_0::SimdSha1Hash            0      0.00%     64.34% # Class of committed instruction (Count)
system.cpu_cluster.cpus.commit.committedInstType_0::SimdSha1Hash2            0      0.00%     64.34% # Class of committed instruction (Count)
system.cpu_cluster.cpus.commit.committedInstType_0::SimdSha256Hash            0      0.00%     64.34% # Class of committed instruction (Count)
system.cpu_cluster.cpus.commit.committedInstType_0::SimdSha256Hash2            0      0.00%     64.34% # Class of committed instruction (Count)
system.cpu_cluster.cpus.commit.committedInstType_0::SimdShaSigma2            0      0.00%     64.34% # Class of committed instruction (Count)
system.cpu_cluster.cpus.commit.committedInstType_0::SimdShaSigma3            0      0.00%     64.34% # Class of committed instruction (Count)
system.cpu_cluster.cpus.commit.committedInstType_0::SimdPredAlu            0      0.00%     64.34% # Class of committed instruction (Count)
system.cpu_cluster.cpus.commit.committedInstType_0::Matrix            0      0.00%     64.34% # Class of committed instruction (Count)
system.cpu_cluster.cpus.commit.committedInstType_0::MatrixMov            0      0.00%     64.34% # Class of committed instruction (Count)
system.cpu_cluster.cpus.commit.committedInstType_0::MatrixOP            0      0.00%     64.34% # Class of committed instruction (Count)
system.cpu_cluster.cpus.commit.committedInstType_0::MemRead     86434558     23.04%     87.38% # Class of committed instruction (Count)
system.cpu_cluster.cpus.commit.committedInstType_0::MemWrite     47336754     12.62%    100.00% # Class of committed instruction (Count)
system.cpu_cluster.cpus.commit.committedInstType_0::FloatMemRead            0      0.00%    100.00% # Class of committed instruction (Count)
system.cpu_cluster.cpus.commit.committedInstType_0::FloatMemWrite            0      0.00%    100.00% # Class of committed instruction (Count)
system.cpu_cluster.cpus.commit.committedInstType_0::IprAccess            0      0.00%    100.00% # Class of committed instruction (Count)
system.cpu_cluster.cpus.commit.committedInstType_0::InstPrefetch            0      0.00%    100.00% # Class of committed instruction (Count)
system.cpu_cluster.cpus.commit.committedInstType_0::SimdUnitStrideLoad            0      0.00%    100.00% # Class of committed instruction (Count)
system.cpu_cluster.cpus.commit.committedInstType_0::SimdUnitStrideStore            0      0.00%    100.00% # Class of committed instruction (Count)
system.cpu_cluster.cpus.commit.committedInstType_0::SimdUnitStrideMaskLoad            0      0.00%    100.00% # Class of committed instruction (Count)
system.cpu_cluster.cpus.commit.committedInstType_0::SimdUnitStrideMaskStore            0      0.00%    100.00% # Class of committed instruction (Count)
system.cpu_cluster.cpus.commit.committedInstType_0::SimdStridedLoad            0      0.00%    100.00% # Class of committed instruction (Count)
system.cpu_cluster.cpus.commit.committedInstType_0::SimdStridedStore            0      0.00%    100.00% # Class of committed instruction (Count)
system.cpu_cluster.cpus.commit.committedInstType_0::SimdIndexedLoad            0      0.00%    100.00% # Class of committed instruction (Count)
system.cpu_cluster.cpus.commit.committedInstType_0::SimdIndexedStore            0      0.00%    100.00% # Class of committed instruction (Count)
system.cpu_cluster.cpus.commit.committedInstType_0::SimdWholeRegisterLoad            0      0.00%    100.00% # Class of committed instruction (Count)
system.cpu_cluster.cpus.commit.committedInstType_0::SimdWholeRegisterStore            0      0.00%    100.00% # Class of committed instruction (Count)
system.cpu_cluster.cpus.commit.committedInstType_0::SimdUnitStrideFaultOnlyFirstLoad            0      0.00%    100.00% # Class of committed instruction (Count)
system.cpu_cluster.cpus.commit.committedInstType_0::SimdUnitStrideSegmentedLoad            0      0.00%    100.00% # Class of committed instruction (Count)
system.cpu_cluster.cpus.commit.committedInstType_0::SimdUnitStrideSegmentedStore            0      0.00%    100.00% # Class of committed instruction (Count)
system.cpu_cluster.cpus.commit.committedInstType_0::SimdExt            0      0.00%    100.00% # Class of committed instruction (Count)
system.cpu_cluster.cpus.commit.committedInstType_0::SimdFloatExt            0      0.00%    100.00% # Class of committed instruction (Count)
system.cpu_cluster.cpus.commit.committedInstType_0::SimdConfig            0      0.00%    100.00% # Class of committed instruction (Count)
system.cpu_cluster.cpus.commit.committedInstType_0::total    375101292                       # Class of committed instruction (Count)
system.cpu_cluster.cpus.commit.commitEligibleSamples     12996534                       # number cycles where commit BW limit reached (Cycle)
system.cpu_cluster.cpus.commitStats0.numInsts    340439037                       # Number of instructions committed (thread level) (Count)
system.cpu_cluster.cpus.commitStats0.numOps    375101292                       # Number of ops (including micro ops) committed (thread level) (Count)
system.cpu_cluster.cpus.commitStats0.numInstsNotNOP    340410932                       # Number of instructions committed excluding NOPs or prefetches (Count)
system.cpu_cluster.cpus.commitStats0.numOpsNotNOP    375073187                       # Number of Ops (including micro ops) Simulated (Count)
system.cpu_cluster.cpus.commitStats0.cpi    16.989762                       # CPI: cycles per instruction (thread level) ((Cycle/Count))
system.cpu_cluster.cpus.commitStats0.ipc     0.058859                       # IPC: instructions per cycle (thread level) ((Count/Cycle))
system.cpu_cluster.cpus.commitStats0.numMemRefs    133771312                       # Number of memory references committed (Count)
system.cpu_cluster.cpus.commitStats0.numFpInsts            0                       # Number of float instructions (Count)
system.cpu_cluster.cpus.commitStats0.numIntInsts    345481823                       # Number of integer instructions (Count)
system.cpu_cluster.cpus.commitStats0.numLoadInsts     86434558                       # Number of load instructions (Count)
system.cpu_cluster.cpus.commitStats0.numStoreInsts     47336754                       # Number of store instructions (Count)
system.cpu_cluster.cpus.commitStats0.numVecInsts         2328                       # Number of vector instructions (Count)
system.cpu_cluster.cpus.commitStats0.committedInstType::No_OpClass           14      0.00%      0.00% # Class of committed instruction. (Count)
system.cpu_cluster.cpus.commitStats0.committedInstType::IntAlu    236061722     62.93%     62.93% # Class of committed instruction. (Count)
system.cpu_cluster.cpus.commitStats0.committedInstType::IntMult      2644532      0.71%     63.64% # Class of committed instruction. (Count)
system.cpu_cluster.cpus.commitStats0.committedInstType::IntDiv      2623427      0.70%     64.34% # Class of committed instruction. (Count)
system.cpu_cluster.cpus.commitStats0.committedInstType::FloatAdd            0      0.00%     64.34% # Class of committed instruction. (Count)
system.cpu_cluster.cpus.commitStats0.committedInstType::FloatCmp            9      0.00%     64.34% # Class of committed instruction. (Count)
system.cpu_cluster.cpus.commitStats0.committedInstType::FloatCvt           15      0.00%     64.34% # Class of committed instruction. (Count)
system.cpu_cluster.cpus.commitStats0.committedInstType::FloatMult            6      0.00%     64.34% # Class of committed instruction. (Count)
system.cpu_cluster.cpus.commitStats0.committedInstType::FloatMultAcc            0      0.00%     64.34% # Class of committed instruction. (Count)
system.cpu_cluster.cpus.commitStats0.committedInstType::FloatDiv            5      0.00%     64.34% # Class of committed instruction. (Count)
system.cpu_cluster.cpus.commitStats0.committedInstType::FloatMisc            8      0.00%     64.34% # Class of committed instruction. (Count)
system.cpu_cluster.cpus.commitStats0.committedInstType::FloatSqrt            0      0.00%     64.34% # Class of committed instruction. (Count)
system.cpu_cluster.cpus.commitStats0.committedInstType::SimdAdd           43      0.00%     64.34% # Class of committed instruction. (Count)
system.cpu_cluster.cpus.commitStats0.committedInstType::SimdAddAcc            0      0.00%     64.34% # Class of committed instruction. (Count)
system.cpu_cluster.cpus.commitStats0.committedInstType::SimdAlu           77      0.00%     64.34% # Class of committed instruction. (Count)
system.cpu_cluster.cpus.commitStats0.committedInstType::SimdCmp           56      0.00%     64.34% # Class of committed instruction. (Count)
system.cpu_cluster.cpus.commitStats0.committedInstType::SimdCvt            0      0.00%     64.34% # Class of committed instruction. (Count)
system.cpu_cluster.cpus.commitStats0.committedInstType::SimdMisc           66      0.00%     64.34% # Class of committed instruction. (Count)
system.cpu_cluster.cpus.commitStats0.committedInstType::SimdMult            0      0.00%     64.34% # Class of committed instruction. (Count)
system.cpu_cluster.cpus.commitStats0.committedInstType::SimdMultAcc            0      0.00%     64.34% # Class of committed instruction. (Count)
system.cpu_cluster.cpus.commitStats0.committedInstType::SimdMatMultAcc            0      0.00%     64.34% # Class of committed instruction. (Count)
system.cpu_cluster.cpus.commitStats0.committedInstType::SimdShift            0      0.00%     64.34% # Class of committed instruction. (Count)
system.cpu_cluster.cpus.commitStats0.committedInstType::SimdShiftAcc            0      0.00%     64.34% # Class of committed instruction. (Count)
system.cpu_cluster.cpus.commitStats0.committedInstType::SimdDiv            0      0.00%     64.34% # Class of committed instruction. (Count)
system.cpu_cluster.cpus.commitStats0.committedInstType::SimdSqrt            0      0.00%     64.34% # Class of committed instruction. (Count)
system.cpu_cluster.cpus.commitStats0.committedInstType::SimdFloatAdd            0      0.00%     64.34% # Class of committed instruction. (Count)
system.cpu_cluster.cpus.commitStats0.committedInstType::SimdFloatAlu            0      0.00%     64.34% # Class of committed instruction. (Count)
system.cpu_cluster.cpus.commitStats0.committedInstType::SimdFloatCmp            0      0.00%     64.34% # Class of committed instruction. (Count)
system.cpu_cluster.cpus.commitStats0.committedInstType::SimdFloatCvt            0      0.00%     64.34% # Class of committed instruction. (Count)
system.cpu_cluster.cpus.commitStats0.committedInstType::SimdFloatDiv            0      0.00%     64.34% # Class of committed instruction. (Count)
system.cpu_cluster.cpus.commitStats0.committedInstType::SimdFloatMisc            0      0.00%     64.34% # Class of committed instruction. (Count)
system.cpu_cluster.cpus.commitStats0.committedInstType::SimdFloatMult            0      0.00%     64.34% # Class of committed instruction. (Count)
system.cpu_cluster.cpus.commitStats0.committedInstType::SimdFloatMultAcc            0      0.00%     64.34% # Class of committed instruction. (Count)
system.cpu_cluster.cpus.commitStats0.committedInstType::SimdFloatMatMultAcc            0      0.00%     64.34% # Class of committed instruction. (Count)
system.cpu_cluster.cpus.commitStats0.committedInstType::SimdFloatSqrt            0      0.00%     64.34% # Class of committed instruction. (Count)
system.cpu_cluster.cpus.commitStats0.committedInstType::SimdReduceAdd            0      0.00%     64.34% # Class of committed instruction. (Count)
system.cpu_cluster.cpus.commitStats0.committedInstType::SimdReduceAlu            0      0.00%     64.34% # Class of committed instruction. (Count)
system.cpu_cluster.cpus.commitStats0.committedInstType::SimdReduceCmp            0      0.00%     64.34% # Class of committed instruction. (Count)
system.cpu_cluster.cpus.commitStats0.committedInstType::SimdFloatReduceAdd            0      0.00%     64.34% # Class of committed instruction. (Count)
system.cpu_cluster.cpus.commitStats0.committedInstType::SimdFloatReduceCmp            0      0.00%     64.34% # Class of committed instruction. (Count)
system.cpu_cluster.cpus.commitStats0.committedInstType::SimdAes            0      0.00%     64.34% # Class of committed instruction. (Count)
system.cpu_cluster.cpus.commitStats0.committedInstType::SimdAesMix            0      0.00%     64.34% # Class of committed instruction. (Count)
system.cpu_cluster.cpus.commitStats0.committedInstType::SimdSha1Hash            0      0.00%     64.34% # Class of committed instruction. (Count)
system.cpu_cluster.cpus.commitStats0.committedInstType::SimdSha1Hash2            0      0.00%     64.34% # Class of committed instruction. (Count)
system.cpu_cluster.cpus.commitStats0.committedInstType::SimdSha256Hash            0      0.00%     64.34% # Class of committed instruction. (Count)
system.cpu_cluster.cpus.commitStats0.committedInstType::SimdSha256Hash2            0      0.00%     64.34% # Class of committed instruction. (Count)
system.cpu_cluster.cpus.commitStats0.committedInstType::SimdShaSigma2            0      0.00%     64.34% # Class of committed instruction. (Count)
system.cpu_cluster.cpus.commitStats0.committedInstType::SimdShaSigma3            0      0.00%     64.34% # Class of committed instruction. (Count)
system.cpu_cluster.cpus.commitStats0.committedInstType::SimdPredAlu            0      0.00%     64.34% # Class of committed instruction. (Count)
system.cpu_cluster.cpus.commitStats0.committedInstType::Matrix            0      0.00%     64.34% # Class of committed instruction. (Count)
system.cpu_cluster.cpus.commitStats0.committedInstType::MatrixMov            0      0.00%     64.34% # Class of committed instruction. (Count)
system.cpu_cluster.cpus.commitStats0.committedInstType::MatrixOP            0      0.00%     64.34% # Class of committed instruction. (Count)
system.cpu_cluster.cpus.commitStats0.committedInstType::MemRead     86434558     23.04%     87.38% # Class of committed instruction. (Count)
system.cpu_cluster.cpus.commitStats0.committedInstType::MemWrite     47336754     12.62%    100.00% # Class of committed instruction. (Count)
system.cpu_cluster.cpus.commitStats0.committedInstType::FloatMemRead            0      0.00%    100.00% # Class of committed instruction. (Count)
system.cpu_cluster.cpus.commitStats0.committedInstType::FloatMemWrite            0      0.00%    100.00% # Class of committed instruction. (Count)
system.cpu_cluster.cpus.commitStats0.committedInstType::IprAccess            0      0.00%    100.00% # Class of committed instruction. (Count)
system.cpu_cluster.cpus.commitStats0.committedInstType::InstPrefetch            0      0.00%    100.00% # Class of committed instruction. (Count)
system.cpu_cluster.cpus.commitStats0.committedInstType::SimdUnitStrideLoad            0      0.00%    100.00% # Class of committed instruction. (Count)
system.cpu_cluster.cpus.commitStats0.committedInstType::SimdUnitStrideStore            0      0.00%    100.00% # Class of committed instruction. (Count)
system.cpu_cluster.cpus.commitStats0.committedInstType::SimdUnitStrideMaskLoad            0      0.00%    100.00% # Class of committed instruction. (Count)
system.cpu_cluster.cpus.commitStats0.committedInstType::SimdUnitStrideMaskStore            0      0.00%    100.00% # Class of committed instruction. (Count)
system.cpu_cluster.cpus.commitStats0.committedInstType::SimdStridedLoad            0      0.00%    100.00% # Class of committed instruction. (Count)
system.cpu_cluster.cpus.commitStats0.committedInstType::SimdStridedStore            0      0.00%    100.00% # Class of committed instruction. (Count)
system.cpu_cluster.cpus.commitStats0.committedInstType::SimdIndexedLoad            0      0.00%    100.00% # Class of committed instruction. (Count)
system.cpu_cluster.cpus.commitStats0.committedInstType::SimdIndexedStore            0      0.00%    100.00% # Class of committed instruction. (Count)
system.cpu_cluster.cpus.commitStats0.committedInstType::SimdWholeRegisterLoad            0      0.00%    100.00% # Class of committed instruction. (Count)
system.cpu_cluster.cpus.commitStats0.committedInstType::SimdWholeRegisterStore            0      0.00%    100.00% # Class of committed instruction. (Count)
system.cpu_cluster.cpus.commitStats0.committedInstType::SimdUnitStrideFaultOnlyFirstLoad            0      0.00%    100.00% # Class of committed instruction. (Count)
system.cpu_cluster.cpus.commitStats0.committedInstType::SimdUnitStrideSegmentedLoad            0      0.00%    100.00% # Class of committed instruction. (Count)
[...]
system.mem_ctrls.dram.totQLat               848968972                       # Total ticks spent queuing (Tick)
system.mem_ctrls.dram.totBusLat              38892672                       # Total ticks spent in databus transfers (Tick)
system.mem_ctrls.dram.totMemAccLat         1111852894                       # Total ticks spent from burst creation until serviced by the DRAM (Tick)
system.mem_ctrls.dram.avgQLat                54483.95                       # Average queueing delay per DRAM burst ((Tick/Count))
system.mem_ctrls.dram.avgBusLat               2496.00                       # Average bus latency per DRAM burst ((Tick/Count))
system.mem_ctrls.dram.avgMemAccLat           71354.95                       # Average memory access latency per DRAM burst ((Tick/Count))
system.mem_ctrls.dram.readRowHits                2376                       # Number of row buffer hits during reads (Count)
system.mem_ctrls.dram.writeRowHits               1501                       # Number of row buffer hits during writes (Count)
system.mem_ctrls.dram.readRowHitRate            15.25                       # Row buffer hit rate for reads (Ratio)
system.mem_ctrls.dram.writeRowHitRate           11.58                       # Row buffer hit rate for writes (Ratio)
system.mem_ctrls.dram.bytesPerActivate::samples        24667                       # Bytes accessed per row activation (Byte)
system.mem_ctrls.dram.bytesPerActivate::mean    74.059107                       # Bytes accessed per row activation (Byte)
system.mem_ctrls.dram.bytesPerActivate::gmean    69.630665                       # Bytes accessed per row activation (Byte)
system.mem_ctrls.dram.bytesPerActivate::stdev    39.942839                       # Bytes accessed per row activation (Byte)
system.mem_ctrls.dram.bytesPerActivate::64-127        22428     90.92%     90.92% # Bytes accessed per row activation (Byte)
system.mem_ctrls.dram.bytesPerActivate::128-191         1451      5.88%     96.81% # Bytes accessed per row activation (Byte)
system.mem_ctrls.dram.bytesPerActivate::192-255          349      1.41%     98.22% # Bytes accessed per row activation (Byte)
system.mem_ctrls.dram.bytesPerActivate::256-319          203      0.82%     99.04% # Bytes accessed per row activation (Byte)
system.mem_ctrls.dram.bytesPerActivate::320-383          121      0.49%     99.53% # Bytes accessed per row activation (Byte)
system.mem_ctrls.dram.bytesPerActivate::384-447           78      0.32%     99.85% # Bytes accessed per row activation (Byte)
system.mem_ctrls.dram.bytesPerActivate::448-511           23      0.09%     99.94% # Bytes accessed per row activation (Byte)
system.mem_ctrls.dram.bytesPerActivate::512-575            8      0.03%     99.98% # Bytes accessed per row activation (Byte)
system.mem_ctrls.dram.bytesPerActivate::576-639            4      0.02%     99.99% # Bytes accessed per row activation (Byte)
system.mem_ctrls.dram.bytesPerActivate::640-703            1      0.00%    100.00% # Bytes accessed per row activation (Byte)
system.mem_ctrls.dram.bytesPerActivate::704-767            1      0.00%    100.00% # Bytes accessed per row activation (Byte)
system.mem_ctrls.dram.bytesPerActivate::total        24667                       # Bytes accessed per row activation (Byte)
system.mem_ctrls.dram.dramBytesRead            997248                       # Total bytes read (Byte)
system.mem_ctrls.dram.dramBytesWritten         829568                       # Total bytes written (Byte)
system.mem_ctrls.dram.avgRdBW             1078.774203                       # Average DRAM read bandwidth in MiBytes/s ((Byte/Second))
system.mem_ctrls.dram.avgWrBW              897.386165                       # Average DRAM write bandwidth in MiBytes/s ((Byte/Second))
system.mem_ctrls.dram.peakBW                 25641.00                       # Theoretical peak bandwidth in MiByte/s ((Byte/Second))
system.mem_ctrls.dram.busUtil                    7.71                       # Data bus utilization in percentage (Ratio)
system.mem_ctrls.dram.busUtilRead                4.21                       # Data bus utilization in percentage for reads (Ratio)
system.mem_ctrls.dram.busUtilWrite               3.50                       # Data bus utilization in percentage for writes (Ratio)
system.mem_ctrls.dram.pageHitRate               13.58                       # Row buffer hit rate, read and write combined (Ratio)
system.mem_ctrls.dram.power_state.pwrStateResidencyTicks::UNDEFINED    924427000                       # Cumulative time (in ticks) in various power states (Tick)
system.mem_ctrls.dram.rank0.actEnergy    -69757486.656000                       # Energy for activate commands per rank (pJ) (Joule)
system.mem_ctrls.dram.rank0.preEnergy    46730743.488000                       # Energy for precharge commands per rank (pJ) (Joule)
system.mem_ctrls.dram.rank0.readEnergy   66397569.638400                       # Energy for read commands per rank (pJ) (Joule)
system.mem_ctrls.dram.rank0.writeEnergy  47973253.785600                       # Energy for write commands per rank (pJ) (Joule)
system.mem_ctrls.dram.rank0.refreshEnergy 41726228.544000                       # Energy for refresh commands per rank (pJ) (Joule)
system.mem_ctrls.dram.rank0.actBackEnergy 355124063.923200                       # Energy for active background per rank (pJ) (Joule)
system.mem_ctrls.dram.rank0.preBackEnergy 144127663.680000                       # Energy for precharge background per rank (pJ) (Joule)
system.mem_ctrls.dram.rank0.actPowerDownEnergy            0                       # Energy for active power-down per rank (pJ) (Joule)
system.mem_ctrls.dram.rank0.prePowerDownEnergy            0                       # Energy for precharge power-down per rank (pJ) (Joule)
system.mem_ctrls.dram.rank0.selfRefreshEnergy            0                       # Energy for self refresh per rank (pJ) (Joule)
system.mem_ctrls.dram.rank0.totalEnergy  632322036.403200                       # Total energy per rank (pJ) (Joule)
system.mem_ctrls.dram.rank0.averagePower   684.015110                       # Core power per rank (mW) (Watt)
system.mem_ctrls.dram.rank0.totalIdleTime            0                       # Total Idle time Per DRAM Rank (Tick)
system.mem_ctrls.dram.rank0.pwrStateTime::IDLE    218761981                       # Time in different power states (Tick)
system.mem_ctrls.dram.rank0.pwrStateTime::REF     70210000                       # Time in different power states (Tick)
system.mem_ctrls.dram.rank0.pwrStateTime::SREF            0                       # Time in different power states (Tick)
system.mem_ctrls.dram.rank0.pwrStateTime::PRE_PDN            0                       # Time in different power states (Tick)
system.mem_ctrls.dram.rank0.pwrStateTime::ACT    635455019                       # Time in different power states (Tick)
system.mem_ctrls.dram.rank0.pwrStateTime::ACT_PDN            0                       # Time in different power states (Tick)
system.mem_ctrls.power_state.pwrStateResidencyTicks::UNDEFINED    924427000                       # Cumulative time (in ticks) in various power states (Tick)
system.membus.transDist::ReadReq                    7                       # Transaction distribution (Count)
system.membus.transDist::ReadResp               12161                       # Transaction distribution (Count)
system.membus.transDist::WritebackDirty         12974                       # Transaction distribution (Count)
system.membus.transDist::CleanEvict             10150                       # Transaction distribution (Count)
system.membus.transDist::UpgradeReq                34                       # Transaction distribution (Count)
system.membus.transDist::SCUpgradeReq               4                       # Transaction distribution (Count)
system.membus.transDist::ReadExReq               3478                       # Transaction distribution (Count)
system.membus.transDist::ReadExResp              3478                       # Transaction distribution (Count)
system.membus.transDist::ReadCleanReq           12154                       # Transaction distribution (Count)
system.membus.transDist::InvalidateReq           7395                       # Transaction distribution (Count)
system.membus.pktCount_system.cpu_cluster.l2.mem_side_port::system.mem_ctrls.port        61821                       # Packet count per connected requestor and responder (Count)
system.membus.pktCount_system.cpu_cluster.l2.mem_side_port::system.iobridge.cpu_side_port           14                       # Packet count per connected requestor and responder (Count)
system.membus.pktCount_system.cpu_cluster.l2.mem_side_port::total        61835                       # Packet count per connected requestor and responder (Count)
system.membus.pktCount::total                   61835                       # Packet count per connected requestor and responder (Count)
system.membus.pktSize_system.cpu_cluster.l2.mem_side_port::system.mem_ctrls.port      1830784                       # Cumulative packet size per connected requestor and responder (Byte)
system.membus.pktSize_system.cpu_cluster.l2.mem_side_port::system.iobridge.cpu_side_port           28                       # Cumulative packet size per connected requestor and responder (Byte)
system.membus.pktSize_system.cpu_cluster.l2.mem_side_port::total      1830812                       # Cumulative packet size per connected requestor and responder (Byte)
system.membus.pktSize::total                  1830812                       # Cumulative packet size per connected requestor and responder (Byte)
system.membus.snoops                                0                       # Total snoops (Count)
system.membus.snoopTraffic                          0                       # Total snoop traffic (Byte)
system.membus.snoopFanout::samples              23072                       # Request fanout histogram (Count)
system.membus.snoopFanout::mean                     0                       # Request fanout histogram (Count)
system.membus.snoopFanout::stdev                    0                       # Request fanout histogram (Count)
system.membus.snoopFanout::underflows               0      0.00%      0.00% # Request fanout histogram (Count)
system.membus.snoopFanout::0                    23072    100.00%    100.00% # Request fanout histogram (Count)
system.membus.snoopFanout::1                        0      0.00%    100.00% # Request fanout histogram (Count)
system.membus.snoopFanout::2                        0      0.00%    100.00% # Request fanout histogram (Count)
system.membus.snoopFanout::overflows                0      0.00%    100.00% # Request fanout histogram (Count)
system.membus.snoopFanout::min_value                0                       # Request fanout histogram (Count)
system.membus.snoopFanout::max_value                0                       # Request fanout histogram (Count)
system.membus.snoopFanout::total                23072                       # Request fanout histogram (Count)
system.membus.badaddr_responder.power_state.pwrStateResidencyTicks::UNDEFINED    924427000                       # Cumulative time (in ticks) in various power states (Tick)
system.membus.power_state.pwrStateResidencyTicks::UNDEFINED    924427000                       # Cumulative time (in ticks) in various power states (Tick)
system.membus.reqLayer0.occupancy           103937538                       # Layer occupancy (ticks) (Tick)
system.membus.reqLayer0.utilization               0.1                       # Layer utilization (Ratio)
system.membus.reqLayer1.occupancy               11000                       # Layer occupancy (ticks) (Tick)
system.membus.reqLayer1.utilization               0.0                       # Layer utilization (Ratio)
system.membus.respLayer2.occupancy           85541627                       # Layer occupancy (ticks) (Tick)
system.membus.respLayer2.utilization              0.1                       # Layer utilization (Ratio)
system.membus.snoop_filter.totRequests          46193                       # Total number of requests made to the snoop filter. (Count)
system.membus.snoop_filter.hitSingleRequests        23168                       # Number of requests hitting in the snoop filter with a single holder of the requested data. (Count)
system.membus.snoop_filter.hitMultiRequests            0                       # Number of requests hitting in the snoop filter with multiple (>1) holders of the requested data. (Count)
system.membus.snoop_filter.totSnoops                0                       # Total number of snoops made to the snoop filter. (Count)
system.membus.snoop_filter.hitSingleSnoops            0                       # Number of snoops hitting in the snoop filter with a single holder of the requested data. (Count)
system.membus.snoop_filter.hitMultiSnoops            0                       # Number of snoops hitting in the snoop filter with multiple (>1) holders of the requested data. (Count)
system.pci_devices.power_state.pwrStateResidencyTicks::UNDEFINED    924427000                       # Cumulative time (in ticks) in various power states (Tick)
system.realview.bootmem.power_state.pwrStateResidencyTicks::UNDEFINED    924427000                       # Cumulative time (in ticks) in various power states (Tick)
system.realview.clock24MHz.clock                41667                       # Clock period in ticks (Tick)
system.realview.clock32KHz.clock             31250000                       # Clock period in ticks (Tick)
system.realview.dcc.osc_cpu.clock               16667                       # Clock period in ticks (Tick)
system.realview.dcc.osc_ddr.clock               25000                       # Clock period in ticks (Tick)
system.realview.dcc.osc_hsbm.clock              25000                       # Clock period in ticks (Tick)
system.realview.dcc.osc_pxl.clock               42105                       # Clock period in ticks (Tick)
system.realview.dcc.osc_smb.clock               20000                       # Clock period in ticks (Tick)
system.realview.dcc.osc_sys.clock               16667                       # Clock period in ticks (Tick)
system.realview.el2_watchdog.power_state.pwrStateResidencyTicks::UNDEFINED    924427000                       # Cumulative time (in ticks) in various power states (Tick)
system.realview.energy_ctrl.power_state.pwrStateResidencyTicks::UNDEFINED    924427000                       # Cumulative time (in ticks) in various power states (Tick)
system.realview.flash0.power_state.pwrStateResidencyTicks::UNDEFINED    924427000                       # Cumulative time (in ticks) in various power states (Tick)
system.realview.flash1.power_state.pwrStateResidencyTicks::UNDEFINED    924427000                       # Cumulative time (in ticks) in various power states (Tick)
system.realview.generic_timer_mem.frames0.power_state.pwrStateResidencyTicks::UNDEFINED    924427000                       # Cumulative time (in ticks) in various power states (Tick)
system.realview.generic_timer_mem.frames1.power_state.pwrStateResidencyTicks::UNDEFINED    924427000                       # Cumulative time (in ticks) in various power states (Tick)
system.realview.generic_timer_mem.power_state.pwrStateResidencyTicks::UNDEFINED    924427000                       # Cumulative time (in ticks) in various power states (Tick)
system.realview.gic.power_state.pwrStateResidencyTicks::UNDEFINED    924427000                       # Cumulative time (in ticks) in various power states (Tick)
system.realview.gicv2m.power_state.pwrStateResidencyTicks::UNDEFINED    924427000                       # Cumulative time (in ticks) in various power states (Tick)
system.realview.io_voltage.voltage           3.300000                       # Voltage in Volts (Volt)
system.realview.kmi0.power_state.pwrStateResidencyTicks::UNDEFINED    924427000                       # Cumulative time (in ticks) in various power states (Tick)
system.realview.kmi1.power_state.pwrStateResidencyTicks::UNDEFINED    924427000                       # Cumulative time (in ticks) in various power states (Tick)
system.realview.mcc.osc_clcd.clock              42105                       # Clock period in ticks (Tick)
system.realview.mcc.osc_mcc.clock               20000                       # Clock period in ticks (Tick)
system.realview.mcc.osc_peripheral.clock        41667                       # Clock period in ticks (Tick)
system.realview.mcc.osc_system_bus.clock        41667                       # Clock period in ticks (Tick)
system.realview.non_trusted_sram.power_state.pwrStateResidencyTicks::UNDEFINED    924427000                       # Cumulative time (in ticks) in various power states (Tick)
system.realview.pci_host.power_state.pwrStateResidencyTicks::UNDEFINED    924427000                       # Cumulative time (in ticks) in various power states (Tick)
system.realview.pwr_ctrl.power_state.pwrStateResidencyTicks::UNDEFINED    924427000                       # Cumulative time (in ticks) in various power states (Tick)
system.realview.realview_io.power_state.pwrStateResidencyTicks::UNDEFINED    924427000                       # Cumulative time (in ticks) in various power states (Tick)
system.realview.rtc.power_state.pwrStateResidencyTicks::UNDEFINED    924427000                       # Cumulative time (in ticks) in various power states (Tick)
system.realview.system_watchdog.power_state.pwrStateResidencyTicks::UNDEFINED    924427000                       # Cumulative time (in ticks) in various power states (Tick)
system.realview.trusted_dram.power_state.pwrStateResidencyTicks::UNDEFINED    924427000                       # Cumulative time (in ticks) in various power states (Tick)
system.realview.trusted_sram.power_state.pwrStateResidencyTicks::UNDEFINED    924427000                       # Cumulative time (in ticks) in various power states (Tick)
system.realview.trusted_watchdog.power_state.pwrStateResidencyTicks::UNDEFINED    924427000                       # Cumulative time (in ticks) in various power states (Tick)
system.realview.uart0.power_state.pwrStateResidencyTicks::UNDEFINED    924427000                       # Cumulative time (in ticks) in various power states (Tick)
system.realview.uart1.power_state.pwrStateResidencyTicks::UNDEFINED    924427000                       # Cumulative time (in ticks) in various power states (Tick)
system.realview.uart2.power_state.pwrStateResidencyTicks::UNDEFINED    924427000                       # Cumulative time (in ticks) in various power states (Tick)
system.realview.uart3.power_state.pwrStateResidencyTicks::UNDEFINED    924427000                       # Cumulative time (in ticks) in various power states (Tick)
system.realview.vgic.power_state.pwrStateResidencyTicks::UNDEFINED    924427000                       # Cumulative time (in ticks) in various power states (Tick)
system.realview.vio0.power_state.pwrStateResidencyTicks::UNDEFINED    924427000                       # Cumulative time (in ticks) in various power states (Tick)
system.realview.vio1.power_state.pwrStateResidencyTicks::UNDEFINED    924427000                       # Cumulative time (in ticks) in various power states (Tick)
system.realview.vram.power_state.pwrStateResidencyTicks::UNDEFINED    924427000                       # Cumulative time (in ticks) in various power states (Tick)
system.realview.watchdog.power_state.pwrStateResidencyTicks::UNDEFINED    924427000                       # Cumulative time (in ticks) in various power states (Tick)
system.voltage_domain.voltage                       1                       # Voltage in Volts (Volt)
system.workload.inst.arm                            0                       # number of arm instructions executed (Count)
system.workload.inst.quiesce                        8                       # number of quiesce instructions executed (Count)

---------- End Simulation Statistics   ----------
