
---------- Begin Simulation Statistics ----------
simSeconds                                   1.608334                       # Number of seconds simulated (Second)
simTicks                                 1608334273000                       # Number of ticks simulated (Tick)
finalTick                                1875597481750                       # Number of ticks from beginning of simulation (restored from checkpoints and never reset) (Tick)
simFreq                                  1000000000000                       # The number of ticks per simulated second ((Tick/Second))
hostSeconds                                   3062.66                       # Real time elapsed on the host (Second)
hostTickRate                                525143224                       # The number of ticks simulated per host second (ticks/s) ((Tick/Second))
hostMemory                                  408000864                       # Number of bytes of host memory used (Byte)
simInsts                                    453351686                       # Number of instructions simulated (Count)
simOps                                      517907566                       # Number of ops (including micro ops) simulated (Count)
hostInstRate                                   148026                       # Simulator instruction rate (inst/s) ((Count/Second))
hostOpRate                                     169104                       # Simulator op (including micro ops) rate (op/s) ((Count/Second))
system.clk_domain.clock                          1000                       # Clock period in ticks (Tick)
system.cpu_cluster.clk_domain.clock               250                       # Clock period in ticks (Tick)
system.cpu_cluster.cpus.numCycles          6433337065                       # Number of cpu cycles simulated (Cycle)
system.cpu_cluster.cpus.cpi                 14.182991                       # CPI: cycles per instruction (core level) ((Cycle/Count))
system.cpu_cluster.cpus.ipc                  0.070507                       # IPC: instructions per cycle (core level) ((Count/Cycle))
system.cpu_cluster.cpus.numWorkItemsStarted            0                       # Number of work items this cpu started (Count)
system.cpu_cluster.cpus.numWorkItemsCompleted            0                       # Number of work items this cpu completed (Count)
system.cpu_cluster.cpus.instsAdded          520511665                       # Number of instructions added to the IQ (excludes non-spec) (Count)
system.cpu_cluster.cpus.nonSpecInstsAdded      6502983                       # Number of non-speculative instructions added to the IQ (Count)
system.cpu_cluster.cpus.instsIssued         553555815                       # Number of instructions issued (Count)
system.cpu_cluster.cpus.squashedInstsIssued       886064                       # Number of squashed instructions issued (Count)
system.cpu_cluster.cpus.squashedInstsExamined      9107082                       # Number of squashed instructions iterated over during squash; mainly for profiling (Count)
system.cpu_cluster.cpus.squashedOperandsExamined      5265982                       # Number of squashed operands that are examined and possibly removed from graph (Count)
system.cpu_cluster.cpus.squashedNonSpecRemoved        49449                       # Number of squashed non-spec instructions that were removed (Count)
system.cpu_cluster.cpus.numIssuedDist::samples   6427470240                       # Number of insts issued each cycle (Count)
system.cpu_cluster.cpus.numIssuedDist::mean     0.086123                       # Number of insts issued each cycle (Count)
system.cpu_cluster.cpus.numIssuedDist::stdev     0.416546                       # Number of insts issued each cycle (Count)
system.cpu_cluster.cpus.numIssuedDist::underflows            0      0.00%      0.00% # Number of insts issued each cycle (Count)
system.cpu_cluster.cpus.numIssuedDist::0   6104823186     94.98%     94.98% # Number of insts issued each cycle (Count)
system.cpu_cluster.cpus.numIssuedDist::1    156044302      2.43%     97.41% # Number of insts issued each cycle (Count)
system.cpu_cluster.cpus.numIssuedDist::2    109305050      1.70%     99.11% # Number of insts issued each cycle (Count)
system.cpu_cluster.cpus.numIssuedDist::3     52742270      0.82%     99.93% # Number of insts issued each cycle (Count)
system.cpu_cluster.cpus.numIssuedDist::4      2102557      0.03%     99.96% # Number of insts issued each cycle (Count)
system.cpu_cluster.cpus.numIssuedDist::5      2452875      0.04%    100.00% # Number of insts issued each cycle (Count)
system.cpu_cluster.cpus.numIssuedDist::6            0      0.00%    100.00% # Number of insts issued each cycle (Count)
system.cpu_cluster.cpus.numIssuedDist::7            0      0.00%    100.00% # Number of insts issued each cycle (Count)
system.cpu_cluster.cpus.numIssuedDist::8            0      0.00%    100.00% # Number of insts issued each cycle (Count)
system.cpu_cluster.cpus.numIssuedDist::overflows            0      0.00%    100.00% # Number of insts issued each cycle (Count)
system.cpu_cluster.cpus.numIssuedDist::min_value            0                       # Number of insts issued each cycle (Count)
system.cpu_cluster.cpus.numIssuedDist::max_value            5                       # Number of insts issued each cycle (Count)
system.cpu_cluster.cpus.numIssuedDist::total   6427470240                       # Number of insts issued each cycle (Count)
system.cpu_cluster.cpus.statFuBusy::No_OpClass            0      0.00%      0.00% # attempts to use FU when none available (Count)
system.cpu_cluster.cpus.statFuBusy::IntAlu     45229402     41.97%     41.97% # attempts to use FU when none available (Count)
system.cpu_cluster.cpus.statFuBusy::IntMult          908      0.00%     41.97% # attempts to use FU when none available (Count)
system.cpu_cluster.cpus.statFuBusy::IntDiv        13628      0.01%     41.98% # attempts to use FU when none available (Count)
system.cpu_cluster.cpus.statFuBusy::FloatAdd            0      0.00%     41.98% # attempts to use FU when none available (Count)
system.cpu_cluster.cpus.statFuBusy::FloatCmp            0      0.00%     41.98% # attempts to use FU when none available (Count)
system.cpu_cluster.cpus.statFuBusy::FloatCvt            0      0.00%     41.98% # attempts to use FU when none available (Count)
system.cpu_cluster.cpus.statFuBusy::FloatMult            0      0.00%     41.98% # attempts to use FU when none available (Count)
system.cpu_cluster.cpus.statFuBusy::FloatMultAcc            0      0.00%     41.98% # attempts to use FU when none available (Count)
system.cpu_cluster.cpus.statFuBusy::FloatDiv            0      0.00%     41.98% # attempts to use FU when none available (Count)
system.cpu_cluster.cpus.statFuBusy::FloatMisc            0      0.00%     41.98% # attempts to use FU when none available (Count)
system.cpu_cluster.cpus.statFuBusy::FloatSqrt            0      0.00%     41.98% # attempts to use FU when none available (Count)
system.cpu_cluster.cpus.statFuBusy::SimdAdd            0      0.00%     41.98% # attempts to use FU when none available (Count)
system.cpu_cluster.cpus.statFuBusy::SimdAddAcc            0      0.00%     41.98% # attempts to use FU when none available (Count)
system.cpu_cluster.cpus.statFuBusy::SimdAlu            1      0.00%     41.98% # attempts to use FU when none available (Count)
system.cpu_cluster.cpus.statFuBusy::SimdCmp            0      0.00%     41.98% # attempts to use FU when none available (Count)
system.cpu_cluster.cpus.statFuBusy::SimdCvt            0      0.00%     41.98% # attempts to use FU when none available (Count)
system.cpu_cluster.cpus.statFuBusy::SimdMisc            0      0.00%     41.98% # attempts to use FU when none available (Count)
system.cpu_cluster.cpus.statFuBusy::SimdMult            0      0.00%     41.98% # attempts to use FU when none available (Count)
system.cpu_cluster.cpus.statFuBusy::SimdMultAcc            0      0.00%     41.98% # attempts to use FU when none available (Count)
system.cpu_cluster.cpus.statFuBusy::SimdMatMultAcc            0      0.00%     41.98% # attempts to use FU when none available (Count)
system.cpu_cluster.cpus.statFuBusy::SimdShift            0      0.00%     41.98% # attempts to use FU when none available (Count)
system.cpu_cluster.cpus.statFuBusy::SimdShiftAcc            0      0.00%     41.98% # attempts to use FU when none available (Count)
system.cpu_cluster.cpus.statFuBusy::SimdDiv            0      0.00%     41.98% # attempts to use FU when none available (Count)
system.cpu_cluster.cpus.statFuBusy::SimdSqrt            0      0.00%     41.98% # attempts to use FU when none available (Count)
system.cpu_cluster.cpus.statFuBusy::SimdFloatAdd            0      0.00%     41.98% # attempts to use FU when none available (Count)
system.cpu_cluster.cpus.statFuBusy::SimdFloatAlu            0      0.00%     41.98% # attempts to use FU when none available (Count)
system.cpu_cluster.cpus.statFuBusy::SimdFloatCmp            0      0.00%     41.98% # attempts to use FU when none available (Count)
system.cpu_cluster.cpus.statFuBusy::SimdFloatCvt            0      0.00%     41.98% # attempts to use FU when none available (Count)
system.cpu_cluster.cpus.statFuBusy::SimdFloatDiv            0      0.00%     41.98% # attempts to use FU when none available (Count)
system.cpu_cluster.cpus.statFuBusy::SimdFloatMisc            0      0.00%     41.98% # attempts to use FU when none available (Count)
system.cpu_cluster.cpus.statFuBusy::SimdFloatMult            0      0.00%     41.98% # attempts to use FU when none available (Count)
system.cpu_cluster.cpus.statFuBusy::SimdFloatMultAcc            0      0.00%     41.98% # attempts to use FU when none available (Count)
system.cpu_cluster.cpus.statFuBusy::SimdFloatMatMultAcc            0      0.00%     41.98% # attempts to use FU when none available (Count)
system.cpu_cluster.cpus.statFuBusy::SimdFloatSqrt            0      0.00%     41.98% # attempts to use FU when none available (Count)
system.cpu_cluster.cpus.statFuBusy::SimdReduceAdd            0      0.00%     41.98% # attempts to use FU when none available (Count)
system.cpu_cluster.cpus.statFuBusy::SimdReduceAlu            0      0.00%     41.98% # attempts to use FU when none available (Count)
system.cpu_cluster.cpus.statFuBusy::SimdReduceCmp            0      0.00%     41.98% # attempts to use FU when none available (Count)
system.cpu_cluster.cpus.statFuBusy::SimdFloatReduceAdd            0      0.00%     41.98% # attempts to use FU when none available (Count)
system.cpu_cluster.cpus.statFuBusy::SimdFloatReduceCmp            0      0.00%     41.98% # attempts to use FU when none available (Count)
system.cpu_cluster.cpus.statFuBusy::SimdAes            0      0.00%     41.98% # attempts to use FU when none available (Count)
system.cpu_cluster.cpus.statFuBusy::SimdAesMix            0      0.00%     41.98% # attempts to use FU when none available (Count)
system.cpu_cluster.cpus.statFuBusy::SimdSha1Hash            0      0.00%     41.98% # attempts to use FU when none available (Count)
system.cpu_cluster.cpus.statFuBusy::SimdSha1Hash2            0      0.00%     41.98% # attempts to use FU when none available (Count)
system.cpu_cluster.cpus.statFuBusy::SimdSha256Hash            0      0.00%     41.98% # attempts to use FU when none available (Count)
system.cpu_cluster.cpus.statFuBusy::SimdSha256Hash2            0      0.00%     41.98% # attempts to use FU when none available (Count)
system.cpu_cluster.cpus.statFuBusy::SimdShaSigma2            0      0.00%     41.98% # attempts to use FU when none available (Count)
system.cpu_cluster.cpus.statFuBusy::SimdShaSigma3            0      0.00%     41.98% # attempts to use FU when none available (Count)
system.cpu_cluster.cpus.statFuBusy::SimdPredAlu            0      0.00%     41.98% # attempts to use FU when none available (Count)
system.cpu_cluster.cpus.statFuBusy::Matrix            0      0.00%     41.98% # attempts to use FU when none available (Count)
system.cpu_cluster.cpus.statFuBusy::MatrixMov            0      0.00%     41.98% # attempts to use FU when none available (Count)
system.cpu_cluster.cpus.statFuBusy::MatrixOP            0      0.00%     41.98% # attempts to use FU when none available (Count)
system.cpu_cluster.cpus.statFuBusy::MemRead     38141246     35.39%     77.37% # attempts to use FU when none available (Count)
system.cpu_cluster.cpus.statFuBusy::MemWrite     24387208     22.63%    100.00% # attempts to use FU when none available (Count)
system.cpu_cluster.cpus.statFuBusy::FloatMemRead            0      0.00%    100.00% # attempts to use FU when none available (Count)
system.cpu_cluster.cpus.statFuBusy::FloatMemWrite            0      0.00%    100.00% # attempts to use FU when none available (Count)
system.cpu_cluster.cpus.statFuBusy::IprAccess            0      0.00%    100.00% # attempts to use FU when none available (Count)
system.cpu_cluster.cpus.statFuBusy::InstPrefetch            0      0.00%    100.00% # attempts to use FU when none available (Count)
system.cpu_cluster.cpus.statFuBusy::SimdUnitStrideLoad            0      0.00%    100.00% # attempts to use FU when none available (Count)
system.cpu_cluster.cpus.statFuBusy::SimdUnitStrideStore            0      0.00%    100.00% # attempts to use FU when none available (Count)
system.cpu_cluster.cpus.statFuBusy::SimdUnitStrideMaskLoad            0      0.00%    100.00% # attempts to use FU when none available (Count)
system.cpu_cluster.cpus.statFuBusy::SimdUnitStrideMaskStore            0      0.00%    100.00% # attempts to use FU when none available (Count)
system.cpu_cluster.cpus.statFuBusy::SimdStridedLoad            0      0.00%    100.00% # attempts to use FU when none available (Count)
system.cpu_cluster.cpus.statFuBusy::SimdStridedStore            0      0.00%    100.00% # attempts to use FU when none available (Count)
system.cpu_cluster.cpus.statFuBusy::SimdIndexedLoad            0      0.00%    100.00% # attempts to use FU when none available (Count)
system.cpu_cluster.cpus.statFuBusy::SimdIndexedStore            0      0.00%    100.00% # attempts to use FU when none available (Count)
system.cpu_cluster.cpus.statFuBusy::SimdWholeRegisterLoad            0      0.00%    100.00% # attempts to use FU when none available (Count)
system.cpu_cluster.cpus.statFuBusy::SimdWholeRegisterStore            0      0.00%    100.00% # attempts to use FU when none available (Count)
system.cpu_cluster.cpus.statFuBusy::SimdUnitStrideFaultOnlyFirstLoad            0      0.00%    100.00% # attempts to use FU when none available (Count)
system.cpu_cluster.cpus.statFuBusy::SimdUnitStrideSegmentedLoad            0      0.00%    100.00% # attempts to use FU when none available (Count)
system.cpu_cluster.cpus.statFuBusy::SimdUnitStrideSegmentedStore            0      0.00%    100.00% # attempts to use FU when none available (Count)
system.cpu_cluster.cpus.statFuBusy::SimdExt            0      0.00%    100.00% # attempts to use FU when none available (Count)
system.cpu_cluster.cpus.statFuBusy::SimdFloatExt            0      0.00%    100.00% # attempts to use FU when none available (Count)
system.cpu_cluster.cpus.statFuBusy::SimdConfig            0      0.00%    100.00% # attempts to use FU when none available (Count)
system.cpu_cluster.cpus.statIssuedInstType_0::No_OpClass         1144      0.00%      0.00% # Number of instructions issued per FU type, per thread (Count)
system.cpu_cluster.cpus.statIssuedInstType_0::IntAlu    336947492     60.87%     60.87% # Number of instructions issued per FU type, per thread (Count)
system.cpu_cluster.cpus.statIssuedInstType_0::IntMult      2793458      0.50%     61.37% # Number of instructions issued per FU type, per thread (Count)
system.cpu_cluster.cpus.statIssuedInstType_0::IntDiv      2623730      0.47%     61.85% # Number of instructions issued per FU type, per thread (Count)
system.cpu_cluster.cpus.statIssuedInstType_0::FloatAdd            0      0.00%     61.85% # Number of instructions issued per FU type, per thread (Count)
system.cpu_cluster.cpus.statIssuedInstType_0::FloatCmp            9      0.00%     61.85% # Number of instructions issued per FU type, per thread (Count)
system.cpu_cluster.cpus.statIssuedInstType_0::FloatCvt           15      0.00%     61.85% # Number of instructions issued per FU type, per thread (Count)
system.cpu_cluster.cpus.statIssuedInstType_0::FloatMult            6      0.00%     61.85% # Number of instructions issued per FU type, per thread (Count)
system.cpu_cluster.cpus.statIssuedInstType_0::FloatMultAcc            0      0.00%     61.85% # Number of instructions issued per FU type, per thread (Count)
system.cpu_cluster.cpus.statIssuedInstType_0::FloatDiv            5      0.00%     61.85% # Number of instructions issued per FU type, per thread (Count)
system.cpu_cluster.cpus.statIssuedInstType_0::FloatMisc            8      0.00%     61.85% # Number of instructions issued per FU type, per thread (Count)
system.cpu_cluster.cpus.statIssuedInstType_0::FloatSqrt            0      0.00%     61.85% # Number of instructions issued per FU type, per thread (Count)
system.cpu_cluster.cpus.statIssuedInstType_0::SimdAdd           43      0.00%     61.85% # Number of instructions issued per FU type, per thread (Count)
system.cpu_cluster.cpus.statIssuedInstType_0::SimdAddAcc            0      0.00%     61.85% # Number of instructions issued per FU type, per thread (Count)
system.cpu_cluster.cpus.statIssuedInstType_0::SimdAlu           77      0.00%     61.85% # Number of instructions issued per FU type, per thread (Count)
system.cpu_cluster.cpus.statIssuedInstType_0::SimdCmp           56      0.00%     61.85% # Number of instructions issued per FU type, per thread (Count)
system.cpu_cluster.cpus.statIssuedInstType_0::SimdCvt            0      0.00%     61.85% # Number of instructions issued per FU type, per thread (Count)
system.cpu_cluster.cpus.statIssuedInstType_0::SimdMisc           77      0.00%     61.85% # Number of instructions issued per FU type, per thread (Count)
system.cpu_cluster.cpus.statIssuedInstType_0::SimdMult            0      0.00%     61.85% # Number of instructions issued per FU type, per thread (Count)
system.cpu_cluster.cpus.statIssuedInstType_0::SimdMultAcc            0      0.00%     61.85% # Number of instructions issued per FU type, per thread (Count)
system.cpu_cluster.cpus.statIssuedInstType_0::SimdMatMultAcc            0      0.00%     61.85% # Number of instructions issued per FU type, per thread (Count)
system.cpu_cluster.cpus.statIssuedInstType_0::SimdShift            0      0.00%     61.85% # Number of instructions issued per FU type, per thread (Count)
system.cpu_cluster.cpus.statIssuedInstType_0::SimdShiftAcc            0      0.00%     61.85% # Number of instructions issued per FU type, per thread (Count)
system.cpu_cluster.cpus.statIssuedInstType_0::SimdDiv            0      0.00%     61.85% # Number of instructions issued per FU type, per thread (Count)
system.cpu_cluster.cpus.statIssuedInstType_0::SimdSqrt            0      0.00%     61.85% # Number of instructions issued per FU type, per thread (Count)
system.cpu_cluster.cpus.statIssuedInstType_0::SimdFloatAdd            0      0.00%     61.85% # Number of instructions issued per FU type, per thread (Count)
system.cpu_cluster.cpus.statIssuedInstType_0::SimdFloatAlu            0      0.00%     61.85% # Number of instructions issued per FU type, per thread (Count)
system.cpu_cluster.cpus.statIssuedInstType_0::SimdFloatCmp            0      0.00%     61.85% # Number of instructions issued per FU type, per thread (Count)
system.cpu_cluster.cpus.statIssuedInstType_0::SimdFloatCvt            0      0.00%     61.85% # Number of instructions issued per FU type, per thread (Count)
system.cpu_cluster.cpus.statIssuedInstType_0::SimdFloatDiv            0      0.00%     61.85% # Number of instructions issued per FU type, per thread (Count)
system.cpu_cluster.cpus.statIssuedInstType_0::SimdFloatMisc            0      0.00%     61.85% # Number of instructions issued per FU type, per thread (Count)
system.cpu_cluster.cpus.statIssuedInstType_0::SimdFloatMult            0      0.00%     61.85% # Number of instructions issued per FU type, per thread (Count)
system.cpu_cluster.cpus.statIssuedInstType_0::SimdFloatMultAcc            0      0.00%     61.85% # Number of instructions issued per FU type, per thread (Count)
system.cpu_cluster.cpus.statIssuedInstType_0::SimdFloatMatMultAcc            0      0.00%     61.85% # Number of instructions issued per FU type, per thread (Count)
system.cpu_cluster.cpus.statIssuedInstType_0::SimdFloatSqrt            0      0.00%     61.85% # Number of instructions issued per FU type, per thread (Count)
system.cpu_cluster.cpus.statIssuedInstType_0::SimdReduceAdd            0      0.00%     61.85% # Number of instructions issued per FU type, per thread (Count)
system.cpu_cluster.cpus.statIssuedInstType_0::SimdReduceAlu            0      0.00%     61.85% # Number of instructions issued per FU type, per thread (Count)
system.cpu_cluster.cpus.statIssuedInstType_0::SimdReduceCmp            0      0.00%     61.85% # Number of instructions issued per FU type, per thread (Count)
system.cpu_cluster.cpus.statIssuedInstType_0::SimdFloatReduceAdd            0      0.00%     61.85% # Number of instructions issued per FU type, per thread (Count)
system.cpu_cluster.cpus.statIssuedInstType_0::SimdFloatReduceCmp            0      0.00%     61.85% # Number of instructions issued per FU type, per thread (Count)
system.cpu_cluster.cpus.statIssuedInstType_0::SimdAes            0      0.00%     61.85% # Number of instructions issued per FU type, per thread (Count)
system.cpu_cluster.cpus.statIssuedInstType_0::SimdAesMix            0      0.00%     61.85% # Number of instructions issued per FU type, per thread (Count)
system.cpu_cluster.cpus.statIssuedInstType_0::SimdSha1Hash            0      0.00%     61.85% # Number of instructions issued per FU type, per thread (Count)
system.cpu_cluster.cpus.statIssuedInstType_0::SimdSha1Hash2            0      0.00%     61.85% # Number of instructions issued per FU type, per thread (Count)
system.cpu_cluster.cpus.statIssuedInstType_0::SimdSha256Hash            0      0.00%     61.85% # Number of instructions issued per FU type, per thread (Count)
system.cpu_cluster.cpus.statIssuedInstType_0::SimdSha256Hash2            0      0.00%     61.85% # Number of instructions issued per FU type, per thread (Count)
system.cpu_cluster.cpus.statIssuedInstType_0::SimdShaSigma2            0      0.00%     61.85% # Number of instructions issued per FU type, per thread (Count)
system.cpu_cluster.cpus.statIssuedInstType_0::SimdShaSigma3            0      0.00%     61.85% # Number of instructions issued per FU type, per thread (Count)
system.cpu_cluster.cpus.statIssuedInstType_0::SimdPredAlu            0      0.00%     61.85% # Number of instructions issued per FU type, per thread (Count)
system.cpu_cluster.cpus.statIssuedInstType_0::Matrix            0      0.00%     61.85% # Number of instructions issued per FU type, per thread (Count)
system.cpu_cluster.cpus.statIssuedInstType_0::MatrixMov            0      0.00%     61.85% # Number of instructions issued per FU type, per thread (Count)
system.cpu_cluster.cpus.statIssuedInstType_0::MatrixOP            0      0.00%     61.85% # Number of instructions issued per FU type, per thread (Count)
system.cpu_cluster.cpus.statIssuedInstType_0::MemRead    137070817     24.76%     86.61% # Number of instructions issued per FU type, per thread (Count)
system.cpu_cluster.cpus.statIssuedInstType_0::MemWrite     74118878     13.39%    100.00% # Number of instructions issued per FU type, per thread (Count)
system.cpu_cluster.cpus.statIssuedInstType_0::FloatMemRead            0      0.00%    100.00% # Number of instructions issued per FU type, per thread (Count)
system.cpu_cluster.cpus.statIssuedInstType_0::FloatMemWrite            0      0.00%    100.00% # Number of instructions issued per FU type, per thread (Count)
system.cpu_cluster.cpus.statIssuedInstType_0::IprAccess            0      0.00%    100.00% # Number of instructions issued per FU type, per thread (Count)
system.cpu_cluster.cpus.statIssuedInstType_0::InstPrefetch            0      0.00%    100.00% # Number of instructions issued per FU type, per thread (Count)
system.cpu_cluster.cpus.statIssuedInstType_0::SimdUnitStrideLoad            0      0.00%    100.00% # Number of instructions issued per FU type, per thread (Count)
system.cpu_cluster.cpus.statIssuedInstType_0::SimdUnitStrideStore            0      0.00%    100.00% # Number of instructions issued per FU type, per thread (Count)
system.cpu_cluster.cpus.statIssuedInstType_0::SimdUnitStrideMaskLoad            0      0.00%    100.00% # Number of instructions issued per FU type, per thread (Count)
system.cpu_cluster.cpus.statIssuedInstType_0::SimdUnitStrideMaskStore            0      0.00%    100.00% # Number of instructions issued per FU type, per thread (Count)
system.cpu_cluster.cpus.statIssuedInstType_0::SimdStridedLoad            0      0.00%    100.00% # Number of instructions issued per FU type, per thread (Count)
system.cpu_cluster.cpus.statIssuedInstType_0::SimdStridedStore            0      0.00%    100.00% # Number of instructions issued per FU type, per thread (Count)
system.cpu_cluster.cpus.statIssuedInstType_0::SimdIndexedLoad            0      0.00%    100.00% # Number of instructions issued per FU type, per thread (Count)
system.cpu_cluster.cpus.statIssuedInstType_0::SimdIndexedStore            0      0.00%    100.00% # Number of instructions issued per FU type, per thread (Count)
system.cpu_cluster.cpus.statIssuedInstType_0::SimdWholeRegisterLoad            0      0.00%    100.00% # Number of instructions issued per FU type, per thread (Count)
system.cpu_cluster.cpus.statIssuedInstType_0::SimdWholeRegisterStore            0      0.00%    100.00% # Number of instructions issued per FU type, per thread (Count)
system.cpu_cluster.cpus.statIssuedInstType_0::SimdUnitStrideFaultOnlyFirstLoad            0      0.00%    100.00% # Number of instructions issued per FU type, per thread (Count)
system.cpu_cluster.cpus.statIssuedInstType_0::SimdUnitStrideSegmentedLoad            0      0.00%    100.00% # Number of instructions issued per FU type, per thread (Count)
system.cpu_cluster.cpus.statIssuedInstType_0::SimdUnitStrideSegmentedStore            0      0.00%    100.00% # Number of instructions issued per FU type, per thread (Count)
system.cpu_cluster.cpus.statIssuedInstType_0::SimdExt            0      0.00%    100.00% # Number of instructions issued per FU type, per thread (Count)
system.cpu_cluster.cpus.statIssuedInstType_0::SimdFloatExt            0      0.00%    100.00% # Number of instructions issued per FU type, per thread (Count)
system.cpu_cluster.cpus.statIssuedInstType_0::SimdConfig            0      0.00%    100.00% # Number of instructions issued per FU type, per thread (Count)
system.cpu_cluster.cpus.statIssuedInstType_0::total    553555815                       # Number of instructions issued per FU type, per thread (Count)
system.cpu_cluster.cpus.issueRate            0.086045                       # Inst issue rate ((Count/Cycle))
system.cpu_cluster.cpus.fuBusy              107772393                       # FU busy when requested (Count)
system.cpu_cluster.cpus.fuBusyRate           0.194691                       # FU busy rate (busy events/executed inst) ((Count/Count))
system.cpu_cluster.cpus.intInstQueueReads   7643234232                       # Number of integer instruction queue reads (Count)
system.cpu_cluster.cpus.intInstQueueWrites    536122336                       # Number of integer instruction queue writes (Count)
system.cpu_cluster.cpus.intInstQueueWakeupAccesses    523305611                       # Number of integer instruction queue wakeup accesses (Count)
system.cpu_cluster.cpus.fpInstQueueReads            0                       # Number of floating instruction queue reads (Count)
system.cpu_cluster.cpus.fpInstQueueWrites            0                       # Number of floating instruction queue writes (Count)
system.cpu_cluster.cpus.fpInstQueueWakeupAccesses            0                       # Number of floating instruction queue wakeup accesses (Count)
system.cpu_cluster.cpus.vecInstQueueReads         6095                       # Number of vector instruction queue reads (Count)
system.cpu_cluster.cpus.vecInstQueueWrites         2674                       # Number of vector instruction queue writes (Count)
system.cpu_cluster.cpus.vecInstQueueWakeupAccesses         2292                       # Number of vector instruction queue wakeup accesses (Count)
system.cpu_cluster.cpus.intAluAccesses      661323456                       # Number of integer alu accesses (Count)
system.cpu_cluster.cpus.fpAluAccesses               0                       # Number of floating point alu accesses (Count)
system.cpu_cluster.cpus.vecAluAccesses           3608                       # Number of vector alu accesses (Count)
system.cpu_cluster.cpus.numSquashedInsts       709309                       # Number of squashed instructions skipped in execute (Count)
system.cpu_cluster.cpus.numSwp                      0                       # Number of swp insts executed (Count)
system.cpu_cluster.cpus.timesIdled              69959                       # Number of times that the entire CPU went into an idle state and unscheduled itself (Count)
system.cpu_cluster.cpus.idleCycles            5866825                       # Total number of cycles that the CPU has spent unscheduled due to idling (Cycle)
system.cpu_cluster.cpus.quiesceCycles              27                       # Total number of cycles that CPU has spent quiesced or waiting for an interrupt (Cycle)
system.cpu_cluster.cpus.MemDepUnit__0.insertedLoads    110690070                       # Number of loads inserted to the mem dependence unit. (Count)
system.cpu_cluster.cpus.MemDepUnit__0.insertedStores     72339941                       # Number of stores inserted to the mem dependence unit. (Count)
system.cpu_cluster.cpus.MemDepUnit__0.conflictingLoads      1218462                       # Number of conflicting loads. (Count)
system.cpu_cluster.cpus.MemDepUnit__0.conflictingStores       394789                       # Number of conflicting stores. (Count)
system.cpu_cluster.cpus.MemDepUnit__1.insertedLoads            0                       # Number of loads inserted to the mem dependence unit. (Count)
system.cpu_cluster.cpus.MemDepUnit__1.insertedStores            0                       # Number of stores inserted to the mem dependence unit. (Count)
system.cpu_cluster.cpus.MemDepUnit__1.conflictingLoads            0                       # Number of conflicting loads. (Count)
system.cpu_cluster.cpus.MemDepUnit__1.conflictingStores            0                       # Number of conflicting stores. (Count)
system.cpu_cluster.cpus.MemDepUnit__2.insertedLoads            0                       # Number of loads inserted to the mem dependence unit. (Count)
system.cpu_cluster.cpus.MemDepUnit__2.insertedStores            0                       # Number of stores inserted to the mem dependence unit. (Count)
system.cpu_cluster.cpus.MemDepUnit__2.conflictingLoads            0                       # Number of conflicting loads. (Count)
system.cpu_cluster.cpus.MemDepUnit__2.conflictingStores            0                       # Number of conflicting stores. (Count)
system.cpu_cluster.cpus.MemDepUnit__3.insertedLoads            0                       # Number of loads inserted to the mem dependence unit. (Count)
system.cpu_cluster.cpus.MemDepUnit__3.insertedStores            0                       # Number of stores inserted to the mem dependence unit. (Count)
system.cpu_cluster.cpus.MemDepUnit__3.conflictingLoads            0                       # Number of conflicting loads. (Count)
system.cpu_cluster.cpus.MemDepUnit__3.conflictingStores            0                       # Number of conflicting stores. (Count)
system.cpu_cluster.cpus.branchPred.lookups_0::NoBranch        42669      0.04%      0.04% # Number of BP lookups (Count)
system.cpu_cluster.cpus.branchPred.lookups_0::Return     10668535     10.82%     10.87% # Number of BP lookups (Count)
system.cpu_cluster.cpus.branchPred.lookups_0::CallDirect      9974320     10.12%     20.99% # Number of BP lookups (Count)
system.cpu_cluster.cpus.branchPred.lookups_0::CallIndirect       286044      0.29%     21.28% # Number of BP lookups (Count)
system.cpu_cluster.cpus.branchPred.lookups_0::DirectCond     71175238     72.22%     93.50% # Number of BP lookups (Count)
system.cpu_cluster.cpus.branchPred.lookups_0::DirectUncond      3615922      3.67%     97.17% # Number of BP lookups (Count)
system.cpu_cluster.cpus.branchPred.lookups_0::IndirectCond            0      0.00%     97.17% # Number of BP lookups (Count)
system.cpu_cluster.cpus.branchPred.lookups_0::IndirectUncond      2791916      2.83%    100.00% # Number of BP lookups (Count)
system.cpu_cluster.cpus.branchPred.lookups_0::total     98554644                       # Number of BP lookups (Count)
system.cpu_cluster.cpus.branchPred.squashes_0::NoBranch           43      0.00%      0.00% # Number of branches that got squashed (completely removed) as an earlier branch was mispredicted. (Count)
system.cpu_cluster.cpus.branchPred.squashes_0::Return       865246     17.03%     17.04% # Number of branches that got squashed (completely removed) as an earlier branch was mispredicted. (Count)
system.cpu_cluster.cpus.branchPred.squashes_0::CallDirect       406593      8.00%     25.04% # Number of branches that got squashed (completely removed) as an earlier branch was mispredicted. (Count)
system.cpu_cluster.cpus.branchPred.squashes_0::CallIndirect        50468      0.99%     26.03% # Number of branches that got squashed (completely removed) as an earlier branch was mispredicted. (Count)
system.cpu_cluster.cpus.branchPred.squashes_0::DirectCond      3218469     63.36%     89.40% # Number of branches that got squashed (completely removed) as an earlier branch was mispredicted. (Count)
system.cpu_cluster.cpus.branchPred.squashes_0::DirectUncond       368372      7.25%     96.65% # Number of branches that got squashed (completely removed) as an earlier branch was mispredicted. (Count)
system.cpu_cluster.cpus.branchPred.squashes_0::IndirectCond            0      0.00%     96.65% # Number of branches that got squashed (completely removed) as an earlier branch was mispredicted. (Count)
system.cpu_cluster.cpus.branchPred.squashes_0::IndirectUncond       170199      3.35%    100.00% # Number of branches that got squashed (completely removed) as an earlier branch was mispredicted. (Count)
system.cpu_cluster.cpus.branchPred.squashes_0::total      5079390                       # Number of branches that got squashed (completely removed) as an earlier branch was mispredicted. (Count)
system.cpu_cluster.cpus.branchPred.corrected_0::NoBranch        42626      7.02%      7.02% # Number of branches that got corrected but not yet commited. Branches get corrected by decode or after execute. Also a branch misprediction can be detected out-of-order. Therefore, a corrected branch might not end up beeing committed in case an even earlier branch was mispredicted (Count)
system.cpu_cluster.cpus.branchPred.corrected_0::Return          451      0.07%      7.10% # Number of branches that got corrected but not yet commited. Branches get corrected by decode or after execute. Also a branch misprediction can be detected out-of-order. Therefore, a corrected branch might not end up beeing committed in case an even earlier branch was mispredicted (Count)
system.cpu_cluster.cpus.branchPred.corrected_0::CallDirect        62818     10.35%     17.44% # Number of branches that got corrected but not yet commited. Branches get corrected by decode or after execute. Also a branch misprediction can be detected out-of-order. Therefore, a corrected branch might not end up beeing committed in case an even earlier branch was mispredicted (Count)
system.cpu_cluster.cpus.branchPred.corrected_0::CallIndirect         1051      0.17%     17.62% # Number of branches that got corrected but not yet commited. Branches get corrected by decode or after execute. Also a branch misprediction can be detected out-of-order. Therefore, a corrected branch might not end up beeing committed in case an even earlier branch was mispredicted (Count)
system.cpu_cluster.cpus.branchPred.corrected_0::DirectCond       494132     81.39%     99.01% # Number of branches that got corrected but not yet commited. Branches get corrected by decode or after execute. Also a branch misprediction can be detected out-of-order. Therefore, a corrected branch might not end up beeing committed in case an even earlier branch was mispredicted (Count)
system.cpu_cluster.cpus.branchPred.corrected_0::DirectUncond         5789      0.95%     99.96% # Number of branches that got corrected but not yet commited. Branches get corrected by decode or after execute. Also a branch misprediction can be detected out-of-order. Therefore, a corrected branch might not end up beeing committed in case an even earlier branch was mispredicted (Count)
system.cpu_cluster.cpus.branchPred.corrected_0::IndirectCond            0      0.00%     99.96% # Number of branches that got corrected but not yet commited. Branches get corrected by decode or after execute. Also a branch misprediction can be detected out-of-order. Therefore, a corrected branch might not end up beeing committed in case an even earlier branch was mispredicted (Count)
system.cpu_cluster.cpus.branchPred.corrected_0::IndirectUncond          217      0.04%    100.00% # Number of branches that got corrected but not yet commited. Branches get corrected by decode or after execute. Also a branch misprediction can be detected out-of-order. Therefore, a corrected branch might not end up beeing committed in case an even earlier branch was mispredicted (Count)
system.cpu_cluster.cpus.branchPred.corrected_0::total       607084                       # Number of branches that got corrected but not yet commited. Branches get corrected by decode or after execute. Also a branch misprediction can be detected out-of-order. Therefore, a corrected branch might not end up beeing committed in case an even earlier branch was mispredicted (Count)
system.cpu_cluster.cpus.branchPred.earlyResteers_0::NoBranch            0                       # Number of branches that got redirected after decode. (Count)
system.cpu_cluster.cpus.branchPred.earlyResteers_0::Return            0                       # Number of branches that got redirected after decode. (Count)
system.cpu_cluster.cpus.branchPred.earlyResteers_0::CallDirect            0                       # Number of branches that got redirected after decode. (Count)
system.cpu_cluster.cpus.branchPred.earlyResteers_0::CallIndirect            0                       # Number of branches that got redirected after decode. (Count)
system.cpu_cluster.cpus.branchPred.earlyResteers_0::DirectCond            0                       # Number of branches that got redirected after decode. (Count)
system.cpu_cluster.cpus.branchPred.earlyResteers_0::DirectUncond            0                       # Number of branches that got redirected after decode. (Count)
system.cpu_cluster.cpus.branchPred.earlyResteers_0::IndirectCond            0                       # Number of branches that got redirected after decode. (Count)
system.cpu_cluster.cpus.branchPred.earlyResteers_0::IndirectUncond            0                       # Number of branches that got redirected after decode. (Count)
system.cpu_cluster.cpus.branchPred.earlyResteers_0::total            0                       # Number of branches that got redirected after decode. (Count)
system.cpu_cluster.cpus.branchPred.committed_0::NoBranch        42626      0.05%      0.05% # Number of branches finally committed  (Count)
system.cpu_cluster.cpus.branchPred.committed_0::Return      9803289     10.49%     10.53% # Number of branches finally committed  (Count)
system.cpu_cluster.cpus.branchPred.committed_0::CallDirect      9567727     10.24%     20.77% # Number of branches finally committed  (Count)
system.cpu_cluster.cpus.branchPred.committed_0::CallIndirect       235576      0.25%     21.02% # Number of branches finally committed  (Count)
system.cpu_cluster.cpus.branchPred.committed_0::DirectCond     67956769     72.70%     93.72% # Number of branches finally committed  (Count)
system.cpu_cluster.cpus.branchPred.committed_0::DirectUncond      3247550      3.47%     97.20% # Number of branches finally committed  (Count)
system.cpu_cluster.cpus.branchPred.committed_0::IndirectCond            0      0.00%     97.20% # Number of branches finally committed  (Count)
system.cpu_cluster.cpus.branchPred.committed_0::IndirectUncond      2621717      2.80%    100.00% # Number of branches finally committed  (Count)
system.cpu_cluster.cpus.branchPred.committed_0::total     93475254                       # Number of branches finally committed  (Count)
system.cpu_cluster.cpus.branchPred.mispredicted_0::NoBranch        42626      7.13%      7.13% # Number of committed branches that were mispredicted. (Count)
system.cpu_cluster.cpus.branchPred.mispredicted_0::Return          370      0.06%      7.19% # Number of committed branches that were mispredicted. (Count)
system.cpu_cluster.cpus.branchPred.mispredicted_0::CallDirect        58507      9.79%     16.98% # Number of committed branches that were mispredicted. (Count)
system.cpu_cluster.cpus.branchPred.mispredicted_0::CallIndirect         1020      0.17%     17.15% # Number of committed branches that were mispredicted. (Count)
system.cpu_cluster.cpus.branchPred.mispredicted_0::DirectCond       490686     82.10%     99.26% # Number of committed branches that were mispredicted. (Count)
system.cpu_cluster.cpus.branchPred.mispredicted_0::DirectUncond         4252      0.71%     99.97% # Number of committed branches that were mispredicted. (Count)
system.cpu_cluster.cpus.branchPred.mispredicted_0::IndirectCond            0      0.00%     99.97% # Number of committed branches that were mispredicted. (Count)
system.cpu_cluster.cpus.branchPred.mispredicted_0::IndirectUncond          190      0.03%    100.00% # Number of committed branches that were mispredicted. (Count)
system.cpu_cluster.cpus.branchPred.mispredicted_0::total       597651                       # Number of committed branches that were mispredicted. (Count)
system.cpu_cluster.cpus.branchPred.targetProvider_0::NoTarget     31477182     31.94%     31.94% # The component providing the target for taken branches (Count)
system.cpu_cluster.cpus.branchPred.targetProvider_0::BTB     53382845     54.17%     86.10% # The component providing the target for taken branches (Count)
system.cpu_cluster.cpus.branchPred.targetProvider_0::RAS     10668535     10.82%     96.93% # The component providing the target for taken branches (Count)
system.cpu_cluster.cpus.branchPred.targetProvider_0::Indirect      3026082      3.07%    100.00% # The component providing the target for taken branches (Count)
system.cpu_cluster.cpus.branchPred.targetProvider_0::total     98554644                       # The component providing the target for taken branches (Count)
system.cpu_cluster.cpus.branchPred.targetWrong_0::NoBranch       325341     53.59%     53.59% # Number of branches where the target was incorrect or not available at prediction time. (Count)
system.cpu_cluster.cpus.branchPred.targetWrong_0::Return       281159     46.31%     99.90% # Number of branches where the target was incorrect or not available at prediction time. (Count)
system.cpu_cluster.cpus.branchPred.targetWrong_0::CallDirect          451      0.07%     99.98% # Number of branches where the target was incorrect or not available at prediction time. (Count)
system.cpu_cluster.cpus.branchPred.targetWrong_0::CallIndirect          133      0.02%    100.00% # Number of branches where the target was incorrect or not available at prediction time. (Count)
system.cpu_cluster.cpus.branchPred.targetWrong_0::DirectCond            0      0.00%    100.00% # Number of branches where the target was incorrect or not available at prediction time. (Count)
system.cpu_cluster.cpus.branchPred.targetWrong_0::DirectUncond            0      0.00%    100.00% # Number of branches where the target was incorrect or not available at prediction time. (Count)
system.cpu_cluster.cpus.branchPred.targetWrong_0::IndirectCond            0      0.00%    100.00% # Number of branches where the target was incorrect or not available at prediction time. (Count)
system.cpu_cluster.cpus.branchPred.targetWrong_0::IndirectUncond            0      0.00%    100.00% # Number of branches where the target was incorrect or not available at prediction time. (Count)
system.cpu_cluster.cpus.branchPred.targetWrong_0::total       607084                       # Number of branches where the target was incorrect or not available at prediction time. (Count)
system.cpu_cluster.cpus.branchPred.condPredicted     71217907                       # Number of conditional branches predicted (Count)
system.cpu_cluster.cpus.branchPred.condPredictedTaken     40147478                       # Number of conditional branches predicted as taken (Count)
system.cpu_cluster.cpus.branchPred.condIncorrect       607084                       # Number of conditional branches incorrect (Count)
system.cpu_cluster.cpus.branchPred.predTakenBTBMiss       127802                       # Number of branches predicted taken but missed in BTB (Count)
system.cpu_cluster.cpus.branchPred.NotTakenMispredicted       325925                       # Number branches predicted 'not taken' but turned out to be taken (Count)
system.cpu_cluster.cpus.branchPred.TakenMispredicted       281159                       # Number branches predicted taken but are actually not taken (Count)
system.cpu_cluster.cpus.branchPred.BTBLookups     98554644                       # Number of BTB lookups (Count)
system.cpu_cluster.cpus.branchPred.BTBUpdates       281580                       # Number of BTB updates (Count)
system.cpu_cluster.cpus.branchPred.BTBHits     59501154                       # Number of BTB hits (Count)
system.cpu_cluster.cpus.branchPred.BTBHitRatio     0.603738                       # BTB Hit Ratio (Ratio)
system.cpu_cluster.cpus.branchPred.BTBMispredicted       133722                       # Number BTB mispredictions. No target found or target wrong (Count)
system.cpu_cluster.cpus.branchPred.indirectLookups      3077960                       # Number of indirect predictor lookups. (Count)
system.cpu_cluster.cpus.branchPred.indirectHits      3026082                       # Number of indirect target hits. (Count)
system.cpu_cluster.cpus.branchPred.indirectMisses        51878                       # Number of indirect misses. (Count)
system.cpu_cluster.cpus.branchPred.indirectMispredicted            0                       # Number of mispredicted indirect branches. (Count)
system.cpu_cluster.cpus.branchPred.btb.lookups::NoBranch        42669      0.04%      0.04% # Number of BTB lookups (Count)
system.cpu_cluster.cpus.branchPred.btb.lookups::Return     10668535     10.82%     10.87% # Number of BTB lookups (Count)
system.cpu_cluster.cpus.branchPred.btb.lookups::CallDirect      9974320     10.12%     20.99% # Number of BTB lookups (Count)
system.cpu_cluster.cpus.branchPred.btb.lookups::CallIndirect       286044      0.29%     21.28% # Number of BTB lookups (Count)
system.cpu_cluster.cpus.branchPred.btb.lookups::DirectCond     71175238     72.22%     93.50% # Number of BTB lookups (Count)
system.cpu_cluster.cpus.branchPred.btb.lookups::DirectUncond      3615922      3.67%     97.17% # Number of BTB lookups (Count)
system.cpu_cluster.cpus.branchPred.btb.lookups::IndirectCond            0      0.00%     97.17% # Number of BTB lookups (Count)
system.cpu_cluster.cpus.branchPred.btb.lookups::IndirectUncond      2791916      2.83%    100.00% # Number of BTB lookups (Count)
system.cpu_cluster.cpus.branchPred.btb.lookups::total     98554644                       # Number of BTB lookups (Count)
system.cpu_cluster.cpus.branchPred.btb.misses::NoBranch        42669      0.11%      0.11% # Number of BTB misses (Count)
system.cpu_cluster.cpus.branchPred.btb.misses::Return     10668535     27.32%     27.43% # Number of BTB misses (Count)
system.cpu_cluster.cpus.branchPred.btb.misses::CallDirect        82878      0.21%     27.64% # Number of BTB misses (Count)
system.cpu_cluster.cpus.branchPred.btb.misses::CallIndirect       286044      0.73%     28.37% # Number of BTB misses (Count)
system.cpu_cluster.cpus.branchPred.btb.misses::DirectCond     25160737     64.43%     92.80% # Number of BTB misses (Count)
system.cpu_cluster.cpus.branchPred.btb.misses::DirectUncond        20711      0.05%     92.85% # Number of BTB misses (Count)
system.cpu_cluster.cpus.branchPred.btb.misses::IndirectCond            0      0.00%     92.85% # Number of BTB misses (Count)
system.cpu_cluster.cpus.branchPred.btb.misses::IndirectUncond      2791916      7.15%    100.00% # Number of BTB misses (Count)
system.cpu_cluster.cpus.branchPred.btb.misses::total     39053490                       # Number of BTB misses (Count)
system.cpu_cluster.cpus.branchPred.btb.updates::NoBranch            0      0.00%      0.00% # Number of BTB updates (Count)
system.cpu_cluster.cpus.branchPred.btb.updates::Return            0      0.00%      0.00% # Number of BTB updates (Count)
system.cpu_cluster.cpus.branchPred.btb.updates::CallDirect        62818     22.31%     22.31% # Number of BTB updates (Count)
system.cpu_cluster.cpus.branchPred.btb.updates::CallIndirect            0      0.00%     22.31% # Number of BTB updates (Count)
system.cpu_cluster.cpus.branchPred.btb.updates::DirectCond       212973     75.63%     97.94% # Number of BTB updates (Count)
system.cpu_cluster.cpus.branchPred.btb.updates::DirectUncond         5789      2.06%    100.00% # Number of BTB updates (Count)
system.cpu_cluster.cpus.branchPred.btb.updates::IndirectCond            0      0.00%    100.00% # Number of BTB updates (Count)
system.cpu_cluster.cpus.branchPred.btb.updates::IndirectUncond            0      0.00%    100.00% # Number of BTB updates (Count)
system.cpu_cluster.cpus.branchPred.btb.updates::total       281580                       # Number of BTB updates (Count)
system.cpu_cluster.cpus.branchPred.btb.mispredict::NoBranch            0      0.00%      0.00% # Number of BTB mispredictions. No target found or target wrong. (Count)
system.cpu_cluster.cpus.branchPred.btb.mispredict::Return            0      0.00%      0.00% # Number of BTB mispredictions. No target found or target wrong. (Count)
system.cpu_cluster.cpus.branchPred.btb.mispredict::CallDirect        62818     22.31%     22.31% # Number of BTB mispredictions. No target found or target wrong. (Count)
system.cpu_cluster.cpus.branchPred.btb.mispredict::CallIndirect            0      0.00%     22.31% # Number of BTB mispredictions. No target found or target wrong. (Count)
system.cpu_cluster.cpus.branchPred.btb.mispredict::DirectCond       212973     75.63%     97.94% # Number of BTB mispredictions. No target found or target wrong. (Count)
system.cpu_cluster.cpus.branchPred.btb.mispredict::DirectUncond         5789      2.06%    100.00% # Number of BTB mispredictions. No target found or target wrong. (Count)
system.cpu_cluster.cpus.branchPred.btb.mispredict::IndirectCond            0      0.00%    100.00% # Number of BTB mispredictions. No target found or target wrong. (Count)
system.cpu_cluster.cpus.branchPred.btb.mispredict::IndirectUncond            0      0.00%    100.00% # Number of BTB mispredictions. No target found or target wrong. (Count)
system.cpu_cluster.cpus.branchPred.btb.mispredict::total       281580                       # Number of BTB mispredictions. No target found or target wrong. (Count)
system.cpu_cluster.cpus.branchPred.btb.power_state.pwrStateResidencyTicks::UNDEFINED 1875597481750                       # Cumulative time (in ticks) in various power states (Tick)
system.cpu_cluster.cpus.branchPred.indirectBranchPred.lookups      3077960                       # Number of lookups (Count)
system.cpu_cluster.cpus.branchPred.indirectBranchPred.hits      3026082                       # Number of hits of a tag (Count)
system.cpu_cluster.cpus.branchPred.indirectBranchPred.misses        51878                       # Number of misses (Count)
system.cpu_cluster.cpus.branchPred.indirectBranchPred.targetRecords         1268                       # Number of targets that where recorded/installed in the cache (Count)
system.cpu_cluster.cpus.branchPred.indirectBranchPred.indirectRecords      3079228                       # Number of indirect branches/calls recorded in the indirect hist (Count)
system.cpu_cluster.cpus.branchPred.indirectBranchPred.speculativeOverflows            0                       # Number of times more than the allowed capacity for speculative branches/calls where in flight and destroy the path history (Count)
system.cpu_cluster.cpus.branchPred.ras.pushes     11125610                       # Number of times a PC was pushed onto the RAS (Count)
system.cpu_cluster.cpus.branchPred.ras.pops     11125596                       # Number of times a PC was poped from the RAS (Count)
system.cpu_cluster.cpus.branchPred.ras.squashes      1322307                       # Number of times the stack operation was squashed due to wrong speculation. (Count)
system.cpu_cluster.cpus.branchPred.ras.used      9803289                       # Number of times the RAS is the provider (Count)
system.cpu_cluster.cpus.branchPred.ras.correct      9802919                       # Number of times the RAS is the provider and the prediction is correct (Count)
system.cpu_cluster.cpus.branchPred.ras.incorrect          370                       # Number of times the RAS is the provider and the prediction is wrong (Count)
system.cpu_cluster.cpus.commit.commitSquashedInsts      8088680                       # The number of squashed insts skipped by commit (Count)
system.cpu_cluster.cpus.commit.commitNonSpecStalls      6453534                       # The number of times commit has been forced to stall to communicate backwards (Count)
system.cpu_cluster.cpus.commit.branchMispredicts       538734                       # The number of times a branch was mispredicted (Count)
system.cpu_cluster.cpus.commit.numCommittedDist::samples   6426180544                       # Number of insts commited each cycle (Count)
system.cpu_cluster.cpus.commit.numCommittedDist::mean     0.080631                       # Number of insts commited each cycle (Count)
system.cpu_cluster.cpus.commit.numCommittedDist::stdev     0.569609                       # Number of insts commited each cycle (Count)
system.cpu_cluster.cpus.commit.numCommittedDist::underflows            0      0.00%      0.00% # Number of insts commited each cycle (Count)
system.cpu_cluster.cpus.commit.numCommittedDist::0   6213640077     96.69%     96.69% # Number of insts commited each cycle (Count)
system.cpu_cluster.cpus.commit.numCommittedDist::1    101441861      1.58%     98.27% # Number of insts commited each cycle (Count)
system.cpu_cluster.cpus.commit.numCommittedDist::2     43732353      0.68%     98.95% # Number of insts commited each cycle (Count)
system.cpu_cluster.cpus.commit.numCommittedDist::3     18953242      0.29%     99.25% # Number of insts commited each cycle (Count)
system.cpu_cluster.cpus.commit.numCommittedDist::4     20269589      0.32%     99.56% # Number of insts commited each cycle (Count)
system.cpu_cluster.cpus.commit.numCommittedDist::5      9825936      0.15%     99.71% # Number of insts commited each cycle (Count)
system.cpu_cluster.cpus.commit.numCommittedDist::6      1496750      0.02%     99.74% # Number of insts commited each cycle (Count)
system.cpu_cluster.cpus.commit.numCommittedDist::7      1369592      0.02%     99.76% # Number of insts commited each cycle (Count)
system.cpu_cluster.cpus.commit.numCommittedDist::8     15451144      0.24%    100.00% # Number of insts commited each cycle (Count)
system.cpu_cluster.cpus.commit.numCommittedDist::overflows            0      0.00%    100.00% # Number of insts commited each cycle (Count)
system.cpu_cluster.cpus.commit.numCommittedDist::min_value            0                       # Number of insts commited each cycle (Count)
system.cpu_cluster.cpus.commit.numCommittedDist::max_value            8                       # Number of insts commited each cycle (Count)
system.cpu_cluster.cpus.commit.numCommittedDist::total   6426180544                       # Number of insts commited each cycle (Count)
system.cpu_cluster.cpus.commit.amos                 0                       # Number of atomic instructions committed (Count)
system.cpu_cluster.cpus.commit.membars        5753878                       # Number of memory barriers committed (Count)
system.cpu_cluster.cpus.commit.functionCalls      9803303                       # Number of function calls committed. (Count)
system.cpu_cluster.cpus.commit.committedInstType_0::No_OpClass           14      0.00%      0.00% # Class of committed instruction (Count)
system.cpu_cluster.cpus.commit.committedInstType_0::IntAlu    332158510     64.10%     64.10% # Class of committed instruction (Count)
system.cpu_cluster.cpus.commit.committedInstType_0::IntMult      2781386      0.54%     64.64% # Class of committed instruction (Count)
system.cpu_cluster.cpus.commit.committedInstType_0::IntDiv      2623623      0.51%     65.15% # Class of committed instruction (Count)
system.cpu_cluster.cpus.commit.committedInstType_0::FloatAdd            0      0.00%     65.15% # Class of committed instruction (Count)
system.cpu_cluster.cpus.commit.committedInstType_0::FloatCmp            9      0.00%     65.15% # Class of committed instruction (Count)
system.cpu_cluster.cpus.commit.committedInstType_0::FloatCvt           15      0.00%     65.15% # Class of committed instruction (Count)
system.cpu_cluster.cpus.commit.committedInstType_0::FloatMult            6      0.00%     65.15% # Class of committed instruction (Count)
system.cpu_cluster.cpus.commit.committedInstType_0::FloatMultAcc            0      0.00%     65.15% # Class of committed instruction (Count)
system.cpu_cluster.cpus.commit.committedInstType_0::FloatDiv            5      0.00%     65.15% # Class of committed instruction (Count)
system.cpu_cluster.cpus.commit.committedInstType_0::FloatMisc            8      0.00%     65.15% # Class of committed instruction (Count)
system.cpu_cluster.cpus.commit.committedInstType_0::FloatSqrt            0      0.00%     65.15% # Class of committed instruction (Count)
system.cpu_cluster.cpus.commit.committedInstType_0::SimdAdd           43      0.00%     65.15% # Class of committed instruction (Count)
system.cpu_cluster.cpus.commit.committedInstType_0::SimdAddAcc            0      0.00%     65.15% # Class of committed instruction (Count)
system.cpu_cluster.cpus.commit.committedInstType_0::SimdAlu           77      0.00%     65.15% # Class of committed instruction (Count)
system.cpu_cluster.cpus.commit.committedInstType_0::SimdCmp           56      0.00%     65.15% # Class of committed instruction (Count)
system.cpu_cluster.cpus.commit.committedInstType_0::SimdCvt            0      0.00%     65.15% # Class of committed instruction (Count)
system.cpu_cluster.cpus.commit.committedInstType_0::SimdMisc           66      0.00%     65.15% # Class of committed instruction (Count)
system.cpu_cluster.cpus.commit.committedInstType_0::SimdMult            0      0.00%     65.15% # Class of committed instruction (Count)
system.cpu_cluster.cpus.commit.committedInstType_0::SimdMultAcc            0      0.00%     65.15% # Class of committed instruction (Count)
system.cpu_cluster.cpus.commit.committedInstType_0::SimdMatMultAcc            0      0.00%     65.15% # Class of committed instruction (Count)
system.cpu_cluster.cpus.commit.committedInstType_0::SimdShift            0      0.00%     65.15% # Class of committed instruction (Count)
system.cpu_cluster.cpus.commit.committedInstType_0::SimdShiftAcc            0      0.00%     65.15% # Class of committed instruction (Count)
system.cpu_cluster.cpus.commit.committedInstType_0::SimdDiv            0      0.00%     65.15% # Class of committed instruction (Count)
system.cpu_cluster.cpus.commit.committedInstType_0::SimdSqrt            0      0.00%     65.15% # Class of committed instruction (Count)
system.cpu_cluster.cpus.commit.committedInstType_0::SimdFloatAdd            0      0.00%     65.15% # Class of committed instruction (Count)
system.cpu_cluster.cpus.commit.committedInstType_0::SimdFloatAlu            0      0.00%     65.15% # Class of committed instruction (Count)
system.cpu_cluster.cpus.commit.committedInstType_0::SimdFloatCmp            0      0.00%     65.15% # Class of committed instruction (Count)
system.cpu_cluster.cpus.commit.committedInstType_0::SimdFloatCvt            0      0.00%     65.15% # Class of committed instruction (Count)
system.cpu_cluster.cpus.commit.committedInstType_0::SimdFloatDiv            0      0.00%     65.15% # Class of committed instruction (Count)
system.cpu_cluster.cpus.commit.committedInstType_0::SimdFloatMisc            0      0.00%     65.15% # Class of committed instruction (Count)
system.cpu_cluster.cpus.commit.committedInstType_0::SimdFloatMult            0      0.00%     65.15% # Class of committed instruction (Count)
system.cpu_cluster.cpus.commit.committedInstType_0::SimdFloatMultAcc            0      0.00%     65.15% # Class of committed instruction (Count)
system.cpu_cluster.cpus.commit.committedInstType_0::SimdFloatMatMultAcc            0      0.00%     65.15% # Class of committed instruction (Count)
system.cpu_cluster.cpus.commit.committedInstType_0::SimdFloatSqrt            0      0.00%     65.15% # Class of committed instruction (Count)
system.cpu_cluster.cpus.commit.committedInstType_0::SimdReduceAdd            0      0.00%     65.15% # Class of committed instruction (Count)
system.cpu_cluster.cpus.commit.committedInstType_0::SimdReduceAlu            0      0.00%     65.15% # Class of committed instruction (Count)
system.cpu_cluster.cpus.commit.committedInstType_0::SimdReduceCmp            0      0.00%     65.15% # Class of committed instruction (Count)
system.cpu_cluster.cpus.commit.committedInstType_0::SimdFloatReduceAdd            0      0.00%     65.15% # Class of committed instruction (Count)
system.cpu_cluster.cpus.commit.committedInstType_0::SimdFloatReduceCmp            0      0.00%     65.15% # Class of committed instruction (Count)
system.cpu_cluster.cpus.commit.committedInstType_0::SimdAes            0      0.00%     65.15% # Class of committed instruction (Count)
system.cpu_cluster.cpus.commit.committedInstType_0::SimdAesMix            0      0.00%     65.15% # Class of committed instruction (Count)
system.cpu_cluster.cpus.commit.committedInstType_0::SimdSha1Hash            0      0.00%     65.15% # Class of committed instruction (Count)
system.cpu_cluster.cpus.commit.committedInstType_0::SimdSha1Hash2            0      0.00%     65.15% # Class of committed instruction (Count)
system.cpu_cluster.cpus.commit.committedInstType_0::SimdSha256Hash            0      0.00%     65.15% # Class of committed instruction (Count)
system.cpu_cluster.cpus.commit.committedInstType_0::SimdSha256Hash2            0      0.00%     65.15% # Class of committed instruction (Count)
system.cpu_cluster.cpus.commit.committedInstType_0::SimdShaSigma2            0      0.00%     65.15% # Class of committed instruction (Count)
system.cpu_cluster.cpus.commit.committedInstType_0::SimdShaSigma3            0      0.00%     65.15% # Class of committed instruction (Count)
system.cpu_cluster.cpus.commit.committedInstType_0::SimdPredAlu            0      0.00%     65.15% # Class of committed instruction (Count)
system.cpu_cluster.cpus.commit.committedInstType_0::Matrix            0      0.00%     65.15% # Class of committed instruction (Count)
system.cpu_cluster.cpus.commit.committedInstType_0::MatrixMov            0      0.00%     65.15% # Class of committed instruction (Count)
system.cpu_cluster.cpus.commit.committedInstType_0::MatrixOP            0      0.00%     65.15% # Class of committed instruction (Count)
system.cpu_cluster.cpus.commit.committedInstType_0::MemRead    109548525     21.14%     86.29% # Class of committed instruction (Count)
system.cpu_cluster.cpus.commit.committedInstType_0::MemWrite     71038782     13.71%    100.00% # Class of committed instruction (Count)
system.cpu_cluster.cpus.commit.committedInstType_0::FloatMemRead            0      0.00%    100.00% # Class of committed instruction (Count)
system.cpu_cluster.cpus.commit.committedInstType_0::FloatMemWrite            0      0.00%    100.00% # Class of committed instruction (Count)
system.cpu_cluster.cpus.commit.committedInstType_0::IprAccess            0      0.00%    100.00% # Class of committed instruction (Count)
system.cpu_cluster.cpus.commit.committedInstType_0::InstPrefetch            0      0.00%    100.00% # Class of committed instruction (Count)
system.cpu_cluster.cpus.commit.committedInstType_0::SimdUnitStrideLoad            0      0.00%    100.00% # Class of committed instruction (Count)
system.cpu_cluster.cpus.commit.committedInstType_0::SimdUnitStrideStore            0      0.00%    100.00% # Class of committed instruction (Count)
system.cpu_cluster.cpus.commit.committedInstType_0::SimdUnitStrideMaskLoad            0      0.00%    100.00% # Class of committed instruction (Count)
system.cpu_cluster.cpus.commit.committedInstType_0::SimdUnitStrideMaskStore            0      0.00%    100.00% # Class of committed instruction (Count)
system.cpu_cluster.cpus.commit.committedInstType_0::SimdStridedLoad            0      0.00%    100.00% # Class of committed instruction (Count)
system.cpu_cluster.cpus.commit.committedInstType_0::SimdStridedStore            0      0.00%    100.00% # Class of committed instruction (Count)
system.cpu_cluster.cpus.commit.committedInstType_0::SimdIndexedLoad            0      0.00%    100.00% # Class of committed instruction (Count)
system.cpu_cluster.cpus.commit.committedInstType_0::SimdIndexedStore            0      0.00%    100.00% # Class of committed instruction (Count)
system.cpu_cluster.cpus.commit.committedInstType_0::SimdWholeRegisterLoad            0      0.00%    100.00% # Class of committed instruction (Count)
system.cpu_cluster.cpus.commit.committedInstType_0::SimdWholeRegisterStore            0      0.00%    100.00% # Class of committed instruction (Count)
system.cpu_cluster.cpus.commit.committedInstType_0::SimdUnitStrideFaultOnlyFirstLoad            0      0.00%    100.00% # Class of committed instruction (Count)
system.cpu_cluster.cpus.commit.committedInstType_0::SimdUnitStrideSegmentedLoad            0      0.00%    100.00% # Class of committed instruction (Count)
system.cpu_cluster.cpus.commit.committedInstType_0::SimdUnitStrideSegmentedStore            0      0.00%    100.00% # Class of committed instruction (Count)
system.cpu_cluster.cpus.commit.committedInstType_0::SimdExt            0      0.00%    100.00% # Class of committed instruction (Count)
system.cpu_cluster.cpus.commit.committedInstType_0::SimdFloatExt            0      0.00%    100.00% # Class of committed instruction (Count)
system.cpu_cluster.cpus.commit.committedInstType_0::SimdConfig            0      0.00%    100.00% # Class of committed instruction (Count)
system.cpu_cluster.cpus.commit.committedInstType_0::total    518151125                       # Class of committed instruction (Count)
system.cpu_cluster.cpus.commit.commitEligibleSamples     15451144                       # number cycles where commit BW limit reached (Cycle)
system.cpu_cluster.cpus.commitStats0.numInsts    453595245                       # Number of instructions committed (thread level) (Count)
system.cpu_cluster.cpus.commitStats0.numOps    518151125                       # Number of ops (including micro ops) committed (thread level) (Count)
system.cpu_cluster.cpus.commitStats0.numInstsNotNOP    453351686                       # Number of instructions committed excluding NOPs or prefetches (Count)
system.cpu_cluster.cpus.commitStats0.numOpsNotNOP    517907566                       # Number of Ops (including micro ops) Simulated (Count)
system.cpu_cluster.cpus.commitStats0.cpi    14.182991                       # CPI: cycles per instruction (thread level) ((Cycle/Count))
system.cpu_cluster.cpus.commitStats0.ipc     0.070507                       # IPC: instructions per cycle (thread level) ((Count/Cycle))
system.cpu_cluster.cpus.commitStats0.numMemRefs    180587307                       # Number of memory references committed (Count)
system.cpu_cluster.cpus.commitStats0.numFpInsts            0                       # Number of float instructions (Count)
system.cpu_cluster.cpus.commitStats0.numIntInsts    482329114                       # Number of integer instructions (Count)
system.cpu_cluster.cpus.commitStats0.numLoadInsts    109548525                       # Number of load instructions (Count)
system.cpu_cluster.cpus.commitStats0.numStoreInsts     71038782                       # Number of store instructions (Count)
system.cpu_cluster.cpus.commitStats0.numVecInsts         2264                       # Number of vector instructions (Count)
system.cpu_cluster.cpus.commitStats0.committedInstType::No_OpClass           14      0.00%      0.00% # Class of committed instruction. (Count)
system.cpu_cluster.cpus.commitStats0.committedInstType::IntAlu    332158510     64.10%     64.10% # Class of committed instruction. (Count)
system.cpu_cluster.cpus.commitStats0.committedInstType::IntMult      2781386      0.54%     64.64% # Class of committed instruction. (Count)
system.cpu_cluster.cpus.commitStats0.committedInstType::IntDiv      2623623      0.51%     65.15% # Class of committed instruction. (Count)
system.cpu_cluster.cpus.commitStats0.committedInstType::FloatAdd            0      0.00%     65.15% # Class of committed instruction. (Count)
system.cpu_cluster.cpus.commitStats0.committedInstType::FloatCmp            9      0.00%     65.15% # Class of committed instruction. (Count)
system.cpu_cluster.cpus.commitStats0.committedInstType::FloatCvt           15      0.00%     65.15% # Class of committed instruction. (Count)
system.cpu_cluster.cpus.commitStats0.committedInstType::FloatMult            6      0.00%     65.15% # Class of committed instruction. (Count)
system.cpu_cluster.cpus.commitStats0.committedInstType::FloatMultAcc            0      0.00%     65.15% # Class of committed instruction. (Count)
system.cpu_cluster.cpus.commitStats0.committedInstType::FloatDiv            5      0.00%     65.15% # Class of committed instruction. (Count)
system.cpu_cluster.cpus.commitStats0.committedInstType::FloatMisc            8      0.00%     65.15% # Class of committed instruction. (Count)
system.cpu_cluster.cpus.commitStats0.committedInstType::FloatSqrt            0      0.00%     65.15% # Class of committed instruction. (Count)
system.cpu_cluster.cpus.commitStats0.committedInstType::SimdAdd           43      0.00%     65.15% # Class of committed instruction. (Count)
system.cpu_cluster.cpus.commitStats0.committedInstType::SimdAddAcc            0      0.00%     65.15% # Class of committed instruction. (Count)
system.cpu_cluster.cpus.commitStats0.committedInstType::SimdAlu           77      0.00%     65.15% # Class of committed instruction. (Count)
system.cpu_cluster.cpus.commitStats0.committedInstType::SimdCmp           56      0.00%     65.15% # Class of committed instruction. (Count)
system.cpu_cluster.cpus.commitStats0.committedInstType::SimdCvt            0      0.00%     65.15% # Class of committed instruction. (Count)
system.cpu_cluster.cpus.commitStats0.committedInstType::SimdMisc           66      0.00%     65.15% # Class of committed instruction. (Count)
system.cpu_cluster.cpus.commitStats0.committedInstType::SimdMult            0      0.00%     65.15% # Class of committed instruction. (Count)
system.cpu_cluster.cpus.commitStats0.committedInstType::SimdMultAcc            0      0.00%     65.15% # Class of committed instruction. (Count)
system.cpu_cluster.cpus.commitStats0.committedInstType::SimdMatMultAcc            0      0.00%     65.15% # Class of committed instruction. (Count)
system.cpu_cluster.cpus.commitStats0.committedInstType::SimdShift            0      0.00%     65.15% # Class of committed instruction. (Count)
system.cpu_cluster.cpus.commitStats0.committedInstType::SimdShiftAcc            0      0.00%     65.15% # Class of committed instruction. (Count)
system.cpu_cluster.cpus.commitStats0.committedInstType::SimdDiv            0      0.00%     65.15% # Class of committed instruction. (Count)
system.cpu_cluster.cpus.commitStats0.committedInstType::SimdSqrt            0      0.00%     65.15% # Class of committed instruction. (Count)
system.cpu_cluster.cpus.commitStats0.committedInstType::SimdFloatAdd            0      0.00%     65.15% # Class of committed instruction. (Count)
system.cpu_cluster.cpus.commitStats0.committedInstType::SimdFloatAlu            0      0.00%     65.15% # Class of committed instruction. (Count)
system.cpu_cluster.cpus.commitStats0.committedInstType::SimdFloatCmp            0      0.00%     65.15% # Class of committed instruction. (Count)
system.cpu_cluster.cpus.commitStats0.committedInstType::SimdFloatCvt            0      0.00%     65.15% # Class of committed instruction. (Count)
system.cpu_cluster.cpus.commitStats0.committedInstType::SimdFloatDiv            0      0.00%     65.15% # Class of committed instruction. (Count)
system.cpu_cluster.cpus.commitStats0.committedInstType::SimdFloatMisc            0      0.00%     65.15% # Class of committed instruction. (Count)
system.cpu_cluster.cpus.commitStats0.committedInstType::SimdFloatMult            0      0.00%     65.15% # Class of committed instruction. (Count)
system.cpu_cluster.cpus.commitStats0.committedInstType::SimdFloatMultAcc            0      0.00%     65.15% # Class of committed instruction. (Count)
system.cpu_cluster.cpus.commitStats0.committedInstType::SimdFloatMatMultAcc            0      0.00%     65.15% # Class of committed instruction. (Count)
system.cpu_cluster.cpus.commitStats0.committedInstType::SimdFloatSqrt            0      0.00%     65.15% # Class of committed instruction. (Count)
system.cpu_cluster.cpus.commitStats0.committedInstType::SimdReduceAdd            0      0.00%     65.15% # Class of committed instruction. (Count)
system.cpu_cluster.cpus.commitStats0.committedInstType::SimdReduceAlu            0      0.00%     65.15% # Class of committed instruction. (Count)
system.cpu_cluster.cpus.commitStats0.committedInstType::SimdReduceCmp            0      0.00%     65.15% # Class of committed instruction. (Count)
system.cpu_cluster.cpus.commitStats0.committedInstType::SimdFloatReduceAdd            0      0.00%     65.15% # Class of committed instruction. (Count)
system.cpu_cluster.cpus.commitStats0.committedInstType::SimdFloatReduceCmp            0      0.00%     65.15% # Class of committed instruction. (Count)
system.cpu_cluster.cpus.commitStats0.committedInstType::SimdAes            0      0.00%     65.15% # Class of committed instruction. (Count)
system.cpu_cluster.cpus.commitStats0.committedInstType::SimdAesMix            0      0.00%     65.15% # Class of committed instruction. (Count)
system.cpu_cluster.cpus.commitStats0.committedInstType::SimdSha1Hash            0      0.00%     65.15% # Class of committed instruction. (Count)
system.cpu_cluster.cpus.commitStats0.committedInstType::SimdSha1Hash2            0      0.00%     65.15% # Class of committed instruction. (Count)
system.cpu_cluster.cpus.commitStats0.committedInstType::SimdSha256Hash            0      0.00%     65.15% # Class of committed instruction. (Count)
system.cpu_cluster.cpus.commitStats0.committedInstType::SimdSha256Hash2            0      0.00%     65.15% # Class of committed instruction. (Count)
system.cpu_cluster.cpus.commitStats0.committedInstType::SimdShaSigma2            0      0.00%     65.15% # Class of committed instruction. (Count)
system.cpu_cluster.cpus.commitStats0.committedInstType::SimdShaSigma3            0      0.00%     65.15% # Class of committed instruction. (Count)
system.cpu_cluster.cpus.commitStats0.committedInstType::SimdPredAlu            0      0.00%     65.15% # Class of committed instruction. (Count)
system.cpu_cluster.cpus.commitStats0.committedInstType::Matrix            0      0.00%     65.15% # Class of committed instruction. (Count)
system.cpu_cluster.cpus.commitStats0.committedInstType::MatrixMov            0      0.00%     65.15% # Class of committed instruction. (Count)
system.cpu_cluster.cpus.commitStats0.committedInstType::MatrixOP            0      0.00%     65.15% # Class of committed instruction. (Count)
system.cpu_cluster.cpus.commitStats0.committedInstType::MemRead    109548525     21.14%     86.29% # Class of committed instruction. (Count)
system.cpu_cluster.cpus.commitStats0.committedInstType::MemWrite     71038782     13.71%    100.00% # Class of committed instruction. (Count)
system.cpu_cluster.cpus.commitStats0.committedInstType::FloatMemRead            0      0.00%    100.00% # Class of committed instruction. (Count)
system.cpu_cluster.cpus.commitStats0.committedInstType::FloatMemWrite            0      0.00%    100.00% # Class of committed instruction. (Count)
system.cpu_cluster.cpus.commitStats0.committedInstType::IprAccess            0      0.00%    100.00% # Class of committed instruction. (Count)
system.cpu_cluster.cpus.commitStats0.committedInstType::InstPrefetch            0      0.00%    100.00% # Class of committed instruction. (Count)
system.cpu_cluster.cpus.commitStats0.committedInstType::SimdUnitStrideLoad            0      0.00%    100.00% # Class of committed instruction. (Count)
system.cpu_cluster.cpus.commitStats0.committedInstType::SimdUnitStrideStore            0      0.00%    100.00% # Class of committed instruction. (Count)
system.cpu_cluster.cpus.commitStats0.committedInstType::SimdUnitStrideMaskLoad            0      0.00%    100.00% # Class of committed instruction. (Count)
system.cpu_cluster.cpus.commitStats0.committedInstType::SimdUnitStrideMaskStore            0      0.00%    100.00% # Class of committed instruction. (Count)
system.cpu_cluster.cpus.commitStats0.committedInstType::SimdStridedLoad            0      0.00%    100.00% # Class of committed instruction. (Count)
system.cpu_cluster.cpus.commitStats0.committedInstType::SimdStridedStore            0      0.00%    100.00% # Class of committed instruction. (Count)
system.cpu_cluster.cpus.commitStats0.committedInstType::SimdIndexedLoad            0      0.00%    100.00% # Class of committed instruction. (Count)
system.cpu_cluster.cpus.commitStats0.committedInstType::SimdIndexedStore            0      0.00%    100.00% # Class of committed instruction. (Count)
system.cpu_cluster.cpus.commitStats0.committedInstType::SimdWholeRegisterLoad            0      0.00%    100.00% # Class of committed instruction. (Count)
system.cpu_cluster.cpus.commitStats0.committedInstType::SimdWholeRegisterStore            0      0.00%    100.00% # Class of committed instruction. (Count)
system.cpu_cluster.cpus.commitStats0.committedInstType::SimdUnitStrideFaultOnlyFirstLoad            0      0.00%    100.00% # Class of committed instruction. (Count)
system.cpu_cluster.cpus.commitStats0.committedInstType::SimdUnitStrideSegmentedLoad            0      0.00%    100.00% # Class of committed instruction. (Count)
[...]
system.mem_ctrls.dram.perBankWrBursts::26            7                       # Per bank write bursts (Count)
system.mem_ctrls.dram.perBankWrBursts::27            9                       # Per bank write bursts (Count)
system.mem_ctrls.dram.perBankWrBursts::28           11                       # Per bank write bursts (Count)
system.mem_ctrls.dram.perBankWrBursts::29           14                       # Per bank write bursts (Count)
system.mem_ctrls.dram.perBankWrBursts::30            6                       # Per bank write bursts (Count)
system.mem_ctrls.dram.perBankWrBursts::31           13                       # Per bank write bursts (Count)
system.mem_ctrls.dram.totQLat                31731577                       # Total ticks spent queuing (Tick)
system.mem_ctrls.dram.totBusLat               2623296                       # Total ticks spent in databus transfers (Tick)
system.mem_ctrls.dram.totMemAccLat           49462998                       # Total ticks spent from burst creation until serviced by the DRAM (Tick)
system.mem_ctrls.dram.avgQLat                30191.80                       # Average queueing delay per DRAM burst ((Tick/Count))
system.mem_ctrls.dram.avgBusLat               2496.00                       # Average bus latency per DRAM burst ((Tick/Count))
system.mem_ctrls.dram.avgMemAccLat           47062.80                       # Average memory access latency per DRAM burst ((Tick/Count))
system.mem_ctrls.dram.readRowHits                  27                       # Number of row buffer hits during reads (Count)
system.mem_ctrls.dram.writeRowHits                 34                       # Number of row buffer hits during writes (Count)
system.mem_ctrls.dram.readRowHitRate             2.57                       # Row buffer hit rate for reads (Ratio)
system.mem_ctrls.dram.writeRowHitRate            8.04                       # Row buffer hit rate for writes (Ratio)
system.mem_ctrls.dram.bytesPerActivate::samples         1413                       # Bytes accessed per row activation (Byte)
system.mem_ctrls.dram.bytesPerActivate::mean    66.762916                       # Bytes accessed per row activation (Byte)
system.mem_ctrls.dram.bytesPerActivate::gmean    65.523391                       # Bytes accessed per row activation (Byte)
system.mem_ctrls.dram.bytesPerActivate::stdev    22.099914                       # Bytes accessed per row activation (Byte)
system.mem_ctrls.dram.bytesPerActivate::64-95         1374     97.24%     97.24% # Bytes accessed per row activation (Byte)
system.mem_ctrls.dram.bytesPerActivate::128-159           32      2.26%     99.50% # Bytes accessed per row activation (Byte)
system.mem_ctrls.dram.bytesPerActivate::192-223            2      0.14%     99.65% # Bytes accessed per row activation (Byte)
system.mem_ctrls.dram.bytesPerActivate::256-287            1      0.07%     99.72% # Bytes accessed per row activation (Byte)
system.mem_ctrls.dram.bytesPerActivate::384-415            2      0.14%     99.86% # Bytes accessed per row activation (Byte)
system.mem_ctrls.dram.bytesPerActivate::448-479            2      0.14%    100.00% # Bytes accessed per row activation (Byte)
system.mem_ctrls.dram.bytesPerActivate::total         1413                       # Bytes accessed per row activation (Byte)
system.mem_ctrls.dram.dramBytesRead             67264                       # Total bytes read (Byte)
system.mem_ctrls.dram.dramBytesWritten          27072                       # Total bytes written (Byte)
system.mem_ctrls.dram.avgRdBW              250.883738                       # Average DRAM read bandwidth in MiBytes/s ((Byte/Second))
system.mem_ctrls.dram.avgWrBW              100.974140                       # Average DRAM write bandwidth in MiBytes/s ((Byte/Second))
system.mem_ctrls.dram.peakBW                 25641.00                       # Theoretical peak bandwidth in MiByte/s ((Byte/Second))
system.mem_ctrls.dram.busUtil                    1.37                       # Data bus utilization in percentage (Ratio)
system.mem_ctrls.dram.busUtilRead                0.98                       # Data bus utilization in percentage for reads (Ratio)
system.mem_ctrls.dram.busUtilWrite               0.39                       # Data bus utilization in percentage for writes (Ratio)
system.mem_ctrls.dram.pageHitRate                4.14                       # Row buffer hit rate, read and write combined (Ratio)
system.mem_ctrls.dram.power_state.pwrStateResidencyTicks::UNDEFINED    268108250                       # Cumulative time (in ticks) in various power states (Tick)
system.mem_ctrls.dram.rank0.actEnergy    -3995918.784000                       # Energy for activate commands per rank (pJ) (Joule)
system.mem_ctrls.dram.rank0.preEnergy    2676877.632000                       # Energy for precharge commands per rank (pJ) (Joule)
system.mem_ctrls.dram.rank0.readEnergy   4478490.931200                       # Energy for read commands per rank (pJ) (Joule)
system.mem_ctrls.dram.rank0.writeEnergy  1565552.102400                       # Energy for write commands per rank (pJ) (Joule)
system.mem_ctrls.dram.rank0.refreshEnergy 12097099.872000                       # Energy for refresh commands per rank (pJ) (Joule)
system.mem_ctrls.dram.rank0.actBackEnergy 35680598.553600                       # Energy for active background per rank (pJ) (Joule)
system.mem_ctrls.dram.rank0.preBackEnergy 85413172.416000                       # Energy for precharge background per rank (pJ) (Joule)
system.mem_ctrls.dram.rank0.actPowerDownEnergy            0                       # Energy for active power-down per rank (pJ) (Joule)
system.mem_ctrls.dram.rank0.prePowerDownEnergy            0                       # Energy for precharge power-down per rank (pJ) (Joule)
system.mem_ctrls.dram.rank0.selfRefreshEnergy            0                       # Energy for self refresh per rank (pJ) (Joule)
system.mem_ctrls.dram.rank0.totalEnergy  137915872.723200                       # Total energy per rank (pJ) (Joule)
system.mem_ctrls.dram.rank0.averagePower   514.403689                       # Core power per rank (mW) (Watt)
system.mem_ctrls.dram.rank0.totalIdleTime            0                       # Total Idle time Per DRAM Rank (Tick)
system.mem_ctrls.dram.rank0.pwrStateTime::IDLE    197214953                       # Time in different power states (Tick)
system.mem_ctrls.dram.rank0.pwrStateTime::REF     20355000                       # Time in different power states (Tick)
system.mem_ctrls.dram.rank0.pwrStateTime::SREF            0                       # Time in different power states (Tick)
system.mem_ctrls.dram.rank0.pwrStateTime::PRE_PDN            0                       # Time in different power states (Tick)
system.mem_ctrls.dram.rank0.pwrStateTime::ACT     50538297                       # Time in different power states (Tick)
system.mem_ctrls.dram.rank0.pwrStateTime::ACT_PDN            0                       # Time in different power states (Tick)
system.mem_ctrls.power_state.pwrStateResidencyTicks::UNDEFINED    268108250                       # Cumulative time (in ticks) in various power states (Tick)
system.membus.transDist::ReadReq                    7                       # Transaction distribution (Count)
system.membus.transDist::ReadResp                 954                       # Transaction distribution (Count)
system.membus.transDist::WritebackDirty           428                       # Transaction distribution (Count)
system.membus.transDist::CleanEvict               947                       # Transaction distribution (Count)
system.membus.transDist::UpgradeReq                50                       # Transaction distribution (Count)
system.membus.transDist::SCUpgradeReq              29                       # Transaction distribution (Count)
system.membus.transDist::ReadExReq                123                       # Transaction distribution (Count)
system.membus.transDist::ReadExResp               123                       # Transaction distribution (Count)
system.membus.transDist::ReadCleanReq             947                       # Transaction distribution (Count)
system.membus.transDist::InvalidateReq            145                       # Transaction distribution (Count)
system.membus.pktCount_system.cpu_cluster.l2.mem_side_port::system.mem_ctrls.port         3739                       # Packet count per connected requestor and responder (Count)
system.membus.pktCount_system.cpu_cluster.l2.mem_side_port::system.iobridge.cpu_side_port           14                       # Packet count per connected requestor and responder (Count)
system.membus.pktCount_system.cpu_cluster.l2.mem_side_port::total         3753                       # Packet count per connected requestor and responder (Count)
system.membus.pktCount::total                    3753                       # Packet count per connected requestor and responder (Count)
system.membus.pktSize_system.cpu_cluster.l2.mem_side_port::system.mem_ctrls.port        95872                       # Cumulative packet size per connected requestor and responder (Byte)
system.membus.pktSize_system.cpu_cluster.l2.mem_side_port::system.iobridge.cpu_side_port           28                       # Cumulative packet size per connected requestor and responder (Byte)
system.membus.pktSize_system.cpu_cluster.l2.mem_side_port::total        95900                       # Cumulative packet size per connected requestor and responder (Byte)
system.membus.pktSize::total                    95900                       # Cumulative packet size per connected requestor and responder (Byte)
system.membus.snoops                                0                       # Total snoops (Count)
system.membus.snoopTraffic                          0                       # Total snoop traffic (Byte)
system.membus.snoopFanout::samples               1301                       # Request fanout histogram (Count)
system.membus.snoopFanout::mean                     0                       # Request fanout histogram (Count)
system.membus.snoopFanout::stdev                    0                       # Request fanout histogram (Count)
system.membus.snoopFanout::underflows               0      0.00%      0.00% # Request fanout histogram (Count)
system.membus.snoopFanout::0                     1301    100.00%    100.00% # Request fanout histogram (Count)
system.membus.snoopFanout::1                        0      0.00%    100.00% # Request fanout histogram (Count)
system.membus.snoopFanout::2                        0      0.00%    100.00% # Request fanout histogram (Count)
system.membus.snoopFanout::overflows                0      0.00%    100.00% # Request fanout histogram (Count)
system.membus.snoopFanout::min_value                0                       # Request fanout histogram (Count)
system.membus.snoopFanout::max_value                0                       # Request fanout histogram (Count)
system.membus.snoopFanout::total                 1301                       # Request fanout histogram (Count)
system.membus.badaddr_responder.power_state.pwrStateResidencyTicks::UNDEFINED    268108250                       # Cumulative time (in ticks) in various power states (Tick)
system.membus.power_state.pwrStateResidencyTicks::UNDEFINED    268108250                       # Cumulative time (in ticks) in various power states (Tick)
system.membus.reqLayer0.occupancy             5227503                       # Layer occupancy (ticks) (Tick)
system.membus.reqLayer0.utilization               0.0                       # Layer utilization (Ratio)
system.membus.reqLayer1.occupancy                9250                       # Layer occupancy (ticks) (Tick)
system.membus.reqLayer1.utilization               0.0                       # Layer utilization (Ratio)
system.membus.respLayer2.occupancy            6079507                       # Layer occupancy (ticks) (Tick)
system.membus.respLayer2.utilization              0.0                       # Layer utilization (Ratio)
system.membus.snoop_filter.totRequests           2669                       # Total number of requests made to the snoop filter. (Count)
system.membus.snoop_filter.hitSingleRequests         1457                       # Number of requests hitting in the snoop filter with a single holder of the requested data. (Count)
system.membus.snoop_filter.hitMultiRequests            0                       # Number of requests hitting in the snoop filter with multiple (>1) holders of the requested data. (Count)
system.membus.snoop_filter.totSnoops                0                       # Total number of snoops made to the snoop filter. (Count)
system.membus.snoop_filter.hitSingleSnoops            0                       # Number of snoops hitting in the snoop filter with a single holder of the requested data. (Count)
system.membus.snoop_filter.hitMultiSnoops            0                       # Number of snoops hitting in the snoop filter with multiple (>1) holders of the requested data. (Count)
system.pci_devices.power_state.pwrStateResidencyTicks::UNDEFINED    268108250                       # Cumulative time (in ticks) in various power states (Tick)
system.realview.bootmem.power_state.pwrStateResidencyTicks::UNDEFINED    268108250                       # Cumulative time (in ticks) in various power states (Tick)
system.realview.clock24MHz.clock                41667                       # Clock period in ticks (Tick)
system.realview.clock32KHz.clock             31250000                       # Clock period in ticks (Tick)
system.realview.dcc.osc_cpu.clock               16667                       # Clock period in ticks (Tick)
system.realview.dcc.osc_ddr.clock               25000                       # Clock period in ticks (Tick)
system.realview.dcc.osc_hsbm.clock              25000                       # Clock period in ticks (Tick)
system.realview.dcc.osc_pxl.clock               42105                       # Clock period in ticks (Tick)
system.realview.dcc.osc_smb.clock               20000                       # Clock period in ticks (Tick)
system.realview.dcc.osc_sys.clock               16667                       # Clock period in ticks (Tick)
system.realview.el2_watchdog.power_state.pwrStateResidencyTicks::UNDEFINED    268108250                       # Cumulative time (in ticks) in various power states (Tick)
system.realview.energy_ctrl.power_state.pwrStateResidencyTicks::UNDEFINED    268108250                       # Cumulative time (in ticks) in various power states (Tick)
system.realview.flash0.power_state.pwrStateResidencyTicks::UNDEFINED    268108250                       # Cumulative time (in ticks) in various power states (Tick)
system.realview.flash1.power_state.pwrStateResidencyTicks::UNDEFINED    268108250                       # Cumulative time (in ticks) in various power states (Tick)
system.realview.generic_timer_mem.frames0.power_state.pwrStateResidencyTicks::UNDEFINED    268108250                       # Cumulative time (in ticks) in various power states (Tick)
system.realview.generic_timer_mem.frames1.power_state.pwrStateResidencyTicks::UNDEFINED    268108250                       # Cumulative time (in ticks) in various power states (Tick)
system.realview.generic_timer_mem.power_state.pwrStateResidencyTicks::UNDEFINED    268108250                       # Cumulative time (in ticks) in various power states (Tick)
system.realview.gic.power_state.pwrStateResidencyTicks::UNDEFINED    268108250                       # Cumulative time (in ticks) in various power states (Tick)
system.realview.gicv2m.power_state.pwrStateResidencyTicks::UNDEFINED    268108250                       # Cumulative time (in ticks) in various power states (Tick)
system.realview.io_voltage.voltage           3.300000                       # Voltage in Volts (Volt)
system.realview.kmi0.power_state.pwrStateResidencyTicks::UNDEFINED    268108250                       # Cumulative time (in ticks) in various power states (Tick)
system.realview.kmi1.power_state.pwrStateResidencyTicks::UNDEFINED    268108250                       # Cumulative time (in ticks) in various power states (Tick)
system.realview.mcc.osc_clcd.clock              42105                       # Clock period in ticks (Tick)
system.realview.mcc.osc_mcc.clock               20000                       # Clock period in ticks (Tick)
system.realview.mcc.osc_peripheral.clock        41667                       # Clock period in ticks (Tick)
system.realview.mcc.osc_system_bus.clock        41667                       # Clock period in ticks (Tick)
system.realview.non_trusted_sram.power_state.pwrStateResidencyTicks::UNDEFINED    268108250                       # Cumulative time (in ticks) in various power states (Tick)
system.realview.pci_host.power_state.pwrStateResidencyTicks::UNDEFINED    268108250                       # Cumulative time (in ticks) in various power states (Tick)
system.realview.pwr_ctrl.power_state.pwrStateResidencyTicks::UNDEFINED    268108250                       # Cumulative time (in ticks) in various power states (Tick)
system.realview.realview_io.power_state.pwrStateResidencyTicks::UNDEFINED    268108250                       # Cumulative time (in ticks) in various power states (Tick)
system.realview.rtc.power_state.pwrStateResidencyTicks::UNDEFINED    268108250                       # Cumulative time (in ticks) in various power states (Tick)
system.realview.system_watchdog.power_state.pwrStateResidencyTicks::UNDEFINED    268108250                       # Cumulative time (in ticks) in various power states (Tick)
system.realview.trusted_dram.power_state.pwrStateResidencyTicks::UNDEFINED    268108250                       # Cumulative time (in ticks) in various power states (Tick)
system.realview.trusted_sram.power_state.pwrStateResidencyTicks::UNDEFINED    268108250                       # Cumulative time (in ticks) in various power states (Tick)
system.realview.trusted_watchdog.power_state.pwrStateResidencyTicks::UNDEFINED    268108250                       # Cumulative time (in ticks) in various power states (Tick)
system.realview.uart0.power_state.pwrStateResidencyTicks::UNDEFINED    268108250                       # Cumulative time (in ticks) in various power states (Tick)
system.realview.uart1.power_state.pwrStateResidencyTicks::UNDEFINED    268108250                       # Cumulative time (in ticks) in various power states (Tick)
system.realview.uart2.power_state.pwrStateResidencyTicks::UNDEFINED    268108250                       # Cumulative time (in ticks) in various power states (Tick)
system.realview.uart3.power_state.pwrStateResidencyTicks::UNDEFINED    268108250                       # Cumulative time (in ticks) in various power states (Tick)
system.realview.vgic.power_state.pwrStateResidencyTicks::UNDEFINED    268108250                       # Cumulative time (in ticks) in various power states (Tick)
system.realview.vio0.power_state.pwrStateResidencyTicks::UNDEFINED    268108250                       # Cumulative time (in ticks) in various power states (Tick)
system.realview.vio1.power_state.pwrStateResidencyTicks::UNDEFINED    268108250                       # Cumulative time (in ticks) in various power states (Tick)
system.realview.vram.power_state.pwrStateResidencyTicks::UNDEFINED    268108250                       # Cumulative time (in ticks) in various power states (Tick)
system.realview.watchdog.power_state.pwrStateResidencyTicks::UNDEFINED    268108250                       # Cumulative time (in ticks) in various power states (Tick)
system.voltage_domain.voltage                       1                       # Voltage in Volts (Volt)
system.workload.inst.arm                            0                       # number of arm instructions executed (Count)
system.workload.inst.quiesce                        8                       # number of quiesce instructions executed (Count)

---------- End Simulation Statistics   ----------
