
---------- Begin Simulation Statistics ----------
simSeconds                                   1.446031                       # Number of seconds simulated (Second)
simTicks                                 1446030834000                       # Number of ticks simulated (Tick)
finalTick                                1677692930750                       # Number of ticks from beginning of simulation (restored from checkpoints and never reset) (Tick)
simFreq                                  1000000000000                       # The number of ticks per simulated second ((Tick/Second))
hostSeconds                                   2594.39                       # Real time elapsed on the host (Second)
hostTickRate                                557368915                       # The number of ticks simulated per host second (ticks/s) ((Tick/Second))
hostMemory                                  408131504                       # Number of bytes of host memory used (Byte)
simInsts                                    340414436                       # Number of instructions simulated (Count)
simOps                                      375076672                       # Number of ops (including micro ops) simulated (Count)
hostInstRate                                   131212                       # Simulator instruction rate (inst/s) ((Count/Second))
hostOpRate                                     144572                       # Simulator op (including micro ops) rate (op/s) ((Count/Second))
system.clk_domain.clock                          1000                       # Clock period in ticks (Tick)
system.cpu_cluster.clk_domain.clock               250                       # Clock period in ticks (Tick)
system.cpu_cluster.cpus.numCycles          5784123315                       # Number of cpu cycles simulated (Cycle)
system.cpu_cluster.cpus.cpi                 16.990013                       # CPI: cycles per instruction (core level) ((Cycle/Count))
system.cpu_cluster.cpus.ipc                  0.058858                       # IPC: instructions per cycle (core level) ((Count/Cycle))
system.cpu_cluster.cpus.numWorkItemsStarted            0                       # Number of work items this cpu started (Count)
system.cpu_cluster.cpus.numWorkItemsCompleted            0                       # Number of work items this cpu completed (Count)
system.cpu_cluster.cpus.instsAdded          372131910                       # Number of instructions added to the IQ (excludes non-spec) (Count)
system.cpu_cluster.cpus.nonSpecInstsAdded      5354585                       # Number of non-speculative instructions added to the IQ (Count)
system.cpu_cluster.cpus.instsIssued         395145376                       # Number of instructions issued (Count)
system.cpu_cluster.cpus.squashedInstsIssued       401152                       # Number of squashed instructions issued (Count)
system.cpu_cluster.cpus.squashedInstsExamined      2409823                       # Number of squashed instructions iterated over during squash; mainly for profiling (Count)
system.cpu_cluster.cpus.squashedOperandsExamined      1922090                       # Number of squashed operands that are examined and possibly removed from graph (Count)
system.cpu_cluster.cpus.squashedNonSpecRemoved         3295                       # Number of squashed non-spec instructions that were removed (Count)
system.cpu_cluster.cpus.numIssuedDist::samples   5777362337                       # Number of insts issued each cycle (Count)
system.cpu_cluster.cpus.numIssuedDist::mean     0.068395                       # Number of insts issued each cycle (Count)
system.cpu_cluster.cpus.numIssuedDist::stdev     0.372965                       # Number of insts issued each cycle (Count)
system.cpu_cluster.cpus.numIssuedDist::underflows            0      0.00%      0.00% # Number of insts issued each cycle (Count)
system.cpu_cluster.cpus.numIssuedDist::0   5547797986     96.03%     96.03% # Number of insts issued each cycle (Count)
system.cpu_cluster.cpus.numIssuedDist::1    108495335      1.88%     97.90% # Number of insts issued each cycle (Count)
system.cpu_cluster.cpus.numIssuedDist::2     81775042      1.42%     99.32% # Number of insts issued each cycle (Count)
system.cpu_cluster.cpus.numIssuedDist::3     36528167      0.63%     99.95% # Number of insts issued each cycle (Count)
system.cpu_cluster.cpus.numIssuedDist::4       313579      0.01%     99.96% # Number of insts issued each cycle (Count)
system.cpu_cluster.cpus.numIssuedDist::5      2452228      0.04%    100.00% # Number of insts issued each cycle (Count)
system.cpu_cluster.cpus.numIssuedDist::6            0      0.00%    100.00% # Number of insts issued each cycle (Count)
system.cpu_cluster.cpus.numIssuedDist::7            0      0.00%    100.00% # Number of insts issued each cycle (Count)
system.cpu_cluster.cpus.numIssuedDist::8            0      0.00%    100.00% # Number of insts issued each cycle (Count)
system.cpu_cluster.cpus.numIssuedDist::overflows            0      0.00%    100.00% # Number of insts issued each cycle (Count)
system.cpu_cluster.cpus.numIssuedDist::min_value            0                       # Number of insts issued each cycle (Count)
system.cpu_cluster.cpus.numIssuedDist::max_value            5                       # Number of insts issued each cycle (Count)
system.cpu_cluster.cpus.numIssuedDist::total   5777362337                       # Number of insts issued each cycle (Count)
system.cpu_cluster.cpus.statFuBusy::No_OpClass            0      0.00%      0.00% # attempts to use FU when none available (Count)
system.cpu_cluster.cpus.statFuBusy::IntAlu     25845823     35.37%     35.37% # attempts to use FU when none available (Count)
system.cpu_cluster.cpus.statFuBusy::IntMult          814      0.00%     35.37% # attempts to use FU when none available (Count)
system.cpu_cluster.cpus.statFuBusy::IntDiv        12729      0.02%     35.39% # attempts to use FU when none available (Count)
system.cpu_cluster.cpus.statFuBusy::FloatAdd            0      0.00%     35.39% # attempts to use FU when none available (Count)
system.cpu_cluster.cpus.statFuBusy::FloatCmp            0      0.00%     35.39% # attempts to use FU when none available (Count)
system.cpu_cluster.cpus.statFuBusy::FloatCvt            0      0.00%     35.39% # attempts to use FU when none available (Count)
system.cpu_cluster.cpus.statFuBusy::FloatMult            0      0.00%     35.39% # attempts to use FU when none available (Count)
system.cpu_cluster.cpus.statFuBusy::FloatMultAcc            0      0.00%     35.39% # attempts to use FU when none available (Count)
system.cpu_cluster.cpus.statFuBusy::FloatDiv            0      0.00%     35.39% # attempts to use FU when none available (Count)
system.cpu_cluster.cpus.statFuBusy::FloatMisc            1      0.00%     35.39% # attempts to use FU when none available (Count)
system.cpu_cluster.cpus.statFuBusy::FloatSqrt            0      0.00%     35.39% # attempts to use FU when none available (Count)
system.cpu_cluster.cpus.statFuBusy::SimdAdd            0      0.00%     35.39% # attempts to use FU when none available (Count)
system.cpu_cluster.cpus.statFuBusy::SimdAddAcc            0      0.00%     35.39% # attempts to use FU when none available (Count)
system.cpu_cluster.cpus.statFuBusy::SimdAlu            2      0.00%     35.39% # attempts to use FU when none available (Count)
system.cpu_cluster.cpus.statFuBusy::SimdCmp            0      0.00%     35.39% # attempts to use FU when none available (Count)
system.cpu_cluster.cpus.statFuBusy::SimdCvt            0      0.00%     35.39% # attempts to use FU when none available (Count)
system.cpu_cluster.cpus.statFuBusy::SimdMisc            0      0.00%     35.39% # attempts to use FU when none available (Count)
system.cpu_cluster.cpus.statFuBusy::SimdMult            0      0.00%     35.39% # attempts to use FU when none available (Count)
system.cpu_cluster.cpus.statFuBusy::SimdMultAcc            0      0.00%     35.39% # attempts to use FU when none available (Count)
system.cpu_cluster.cpus.statFuBusy::SimdMatMultAcc            0      0.00%     35.39% # attempts to use FU when none available (Count)
system.cpu_cluster.cpus.statFuBusy::SimdShift            0      0.00%     35.39% # attempts to use FU when none available (Count)
system.cpu_cluster.cpus.statFuBusy::SimdShiftAcc            0      0.00%     35.39% # attempts to use FU when none available (Count)
system.cpu_cluster.cpus.statFuBusy::SimdDiv            0      0.00%     35.39% # attempts to use FU when none available (Count)
system.cpu_cluster.cpus.statFuBusy::SimdSqrt            0      0.00%     35.39% # attempts to use FU when none available (Count)
system.cpu_cluster.cpus.statFuBusy::SimdFloatAdd            0      0.00%     35.39% # attempts to use FU when none available (Count)
system.cpu_cluster.cpus.statFuBusy::SimdFloatAlu            0      0.00%     35.39% # attempts to use FU when none available (Count)
system.cpu_cluster.cpus.statFuBusy::SimdFloatCmp            0      0.00%     35.39% # attempts to use FU when none available (Count)
system.cpu_cluster.cpus.statFuBusy::SimdFloatCvt            0      0.00%     35.39% # attempts to use FU when none available (Count)
system.cpu_cluster.cpus.statFuBusy::SimdFloatDiv            0      0.00%     35.39% # attempts to use FU when none available (Count)
system.cpu_cluster.cpus.statFuBusy::SimdFloatMisc            0      0.00%     35.39% # attempts to use FU when none available (Count)
system.cpu_cluster.cpus.statFuBusy::SimdFloatMult            0      0.00%     35.39% # attempts to use FU when none available (Count)
system.cpu_cluster.cpus.statFuBusy::SimdFloatMultAcc            0      0.00%     35.39% # attempts to use FU when none available (Count)
system.cpu_cluster.cpus.statFuBusy::SimdFloatMatMultAcc            0      0.00%     35.39% # attempts to use FU when none available (Count)
system.cpu_cluster.cpus.statFuBusy::SimdFloatSqrt            0      0.00%     35.39% # attempts to use FU when none available (Count)
system.cpu_cluster.cpus.statFuBusy::SimdReduceAdd            0      0.00%     35.39% # attempts to use FU when none available (Count)
system.cpu_cluster.cpus.statFuBusy::SimdReduceAlu            0      0.00%     35.39% # attempts to use FU when none available (Count)
system.cpu_cluster.cpus.statFuBusy::SimdReduceCmp            0      0.00%     35.39% # attempts to use FU when none available (Count)
system.cpu_cluster.cpus.statFuBusy::SimdFloatReduceAdd            0      0.00%     35.39% # attempts to use FU when none available (Count)
system.cpu_cluster.cpus.statFuBusy::SimdFloatReduceCmp            0      0.00%     35.39% # attempts to use FU when none available (Count)
system.cpu_cluster.cpus.statFuBusy::SimdAes            0      0.00%     35.39% # attempts to use FU when none available (Count)
system.cpu_cluster.cpus.statFuBusy::SimdAesMix            0      0.00%     35.39% # attempts to use FU when none available (Count)
system.cpu_cluster.cpus.statFuBusy::SimdSha1Hash            0      0.00%     35.39% # attempts to use FU when none available (Count)
system.cpu_cluster.cpus.statFuBusy::SimdSha1Hash2            0      0.00%     35.39% # attempts to use FU when none available (Count)
system.cpu_cluster.cpus.statFuBusy::SimdSha256Hash            0      0.00%     35.39% # attempts to use FU when none available (Count)
system.cpu_cluster.cpus.statFuBusy::SimdSha256Hash2            0      0.00%     35.39% # attempts to use FU when none available (Count)
system.cpu_cluster.cpus.statFuBusy::SimdShaSigma2            0      0.00%     35.39% # attempts to use FU when none available (Count)
system.cpu_cluster.cpus.statFuBusy::SimdShaSigma3            0      0.00%     35.39% # attempts to use FU when none available (Count)
system.cpu_cluster.cpus.statFuBusy::SimdPredAlu            0      0.00%     35.39% # attempts to use FU when none available (Count)
system.cpu_cluster.cpus.statFuBusy::Matrix            0      0.00%     35.39% # attempts to use FU when none available (Count)
system.cpu_cluster.cpus.statFuBusy::MatrixMov            0      0.00%     35.39% # attempts to use FU when none available (Count)
system.cpu_cluster.cpus.statFuBusy::MatrixOP            0      0.00%     35.39% # attempts to use FU when none available (Count)
system.cpu_cluster.cpus.statFuBusy::MemRead     35628518     48.76%     84.15% # attempts to use FU when none available (Count)
system.cpu_cluster.cpus.statFuBusy::MemWrite     11585252     15.85%    100.00% # attempts to use FU when none available (Count)
system.cpu_cluster.cpus.statFuBusy::FloatMemRead            0      0.00%    100.00% # attempts to use FU when none available (Count)
system.cpu_cluster.cpus.statFuBusy::FloatMemWrite            0      0.00%    100.00% # attempts to use FU when none available (Count)
system.cpu_cluster.cpus.statFuBusy::IprAccess            0      0.00%    100.00% # attempts to use FU when none available (Count)
system.cpu_cluster.cpus.statFuBusy::InstPrefetch            0      0.00%    100.00% # attempts to use FU when none available (Count)
system.cpu_cluster.cpus.statFuBusy::SimdUnitStrideLoad            0      0.00%    100.00% # attempts to use FU when none available (Count)
system.cpu_cluster.cpus.statFuBusy::SimdUnitStrideStore            0      0.00%    100.00% # attempts to use FU when none available (Count)
system.cpu_cluster.cpus.statFuBusy::SimdUnitStrideMaskLoad            0      0.00%    100.00% # attempts to use FU when none available (Count)
system.cpu_cluster.cpus.statFuBusy::SimdUnitStrideMaskStore            0      0.00%    100.00% # attempts to use FU when none available (Count)
system.cpu_cluster.cpus.statFuBusy::SimdStridedLoad            0      0.00%    100.00% # attempts to use FU when none available (Count)
system.cpu_cluster.cpus.statFuBusy::SimdStridedStore            0      0.00%    100.00% # attempts to use FU when none available (Count)
system.cpu_cluster.cpus.statFuBusy::SimdIndexedLoad            0      0.00%    100.00% # attempts to use FU when none available (Count)
system.cpu_cluster.cpus.statFuBusy::SimdIndexedStore            0      0.00%    100.00% # attempts to use FU when none available (Count)
system.cpu_cluster.cpus.statFuBusy::SimdWholeRegisterLoad            0      0.00%    100.00% # attempts to use FU when none available (Count)
system.cpu_cluster.cpus.statFuBusy::SimdWholeRegisterStore            0      0.00%    100.00% # attempts to use FU when none available (Count)
system.cpu_cluster.cpus.statFuBusy::SimdUnitStrideFaultOnlyFirstLoad            0      0.00%    100.00% # attempts to use FU when none available (Count)
system.cpu_cluster.cpus.statFuBusy::SimdUnitStrideSegmentedLoad            0      0.00%    100.00% # attempts to use FU when none available (Count)
system.cpu_cluster.cpus.statFuBusy::SimdUnitStrideSegmentedStore            0      0.00%    100.00% # attempts to use FU when none available (Count)
system.cpu_cluster.cpus.statFuBusy::SimdExt            0      0.00%    100.00% # attempts to use FU when none available (Count)
system.cpu_cluster.cpus.statFuBusy::SimdFloatExt            0      0.00%    100.00% # attempts to use FU when none available (Count)
system.cpu_cluster.cpus.statFuBusy::SimdConfig            0      0.00%    100.00% # attempts to use FU when none available (Count)
system.cpu_cluster.cpus.statIssuedInstType_0::No_OpClass          770      0.00%      0.00% # Number of instructions issued per FU type, per thread (Count)
system.cpu_cluster.cpus.statIssuedInstType_0::IntAlu    237159742     60.02%     60.02% # Number of instructions issued per FU type, per thread (Count)
system.cpu_cluster.cpus.statIssuedInstType_0::IntMult      2648213      0.67%     60.69% # Number of instructions issued per FU type, per thread (Count)
system.cpu_cluster.cpus.statIssuedInstType_0::IntDiv      2623501      0.66%     61.35% # Number of instructions issued per FU type, per thread (Count)
system.cpu_cluster.cpus.statIssuedInstType_0::FloatAdd            0      0.00%     61.35% # Number of instructions issued per FU type, per thread (Count)
system.cpu_cluster.cpus.statIssuedInstType_0::FloatCmp            9      0.00%     61.35% # Number of instructions issued per FU type, per thread (Count)
system.cpu_cluster.cpus.statIssuedInstType_0::FloatCvt           15      0.00%     61.35% # Number of instructions issued per FU type, per thread (Count)
system.cpu_cluster.cpus.statIssuedInstType_0::FloatMult            6      0.00%     61.35% # Number of instructions issued per FU type, per thread (Count)
system.cpu_cluster.cpus.statIssuedInstType_0::FloatMultAcc            0      0.00%     61.35% # Number of instructions issued per FU type, per thread (Count)
system.cpu_cluster.cpus.statIssuedInstType_0::FloatDiv            5      0.00%     61.35% # Number of instructions issued per FU type, per thread (Count)
system.cpu_cluster.cpus.statIssuedInstType_0::FloatMisc            8      0.00%     61.35% # Number of instructions issued per FU type, per thread (Count)
system.cpu_cluster.cpus.statIssuedInstType_0::FloatSqrt            0      0.00%     61.35% # Number of instructions issued per FU type, per thread (Count)
system.cpu_cluster.cpus.statIssuedInstType_0::SimdAdd           43      0.00%     61.35% # Number of instructions issued per FU type, per thread (Count)
system.cpu_cluster.cpus.statIssuedInstType_0::SimdAddAcc            0      0.00%     61.35% # Number of instructions issued per FU type, per thread (Count)
system.cpu_cluster.cpus.statIssuedInstType_0::SimdAlu           77      0.00%     61.35% # Number of instructions issued per FU type, per thread (Count)
system.cpu_cluster.cpus.statIssuedInstType_0::SimdCmp           56      0.00%     61.35% # Number of instructions issued per FU type, per thread (Count)
system.cpu_cluster.cpus.statIssuedInstType_0::SimdCvt            0      0.00%     61.35% # Number of instructions issued per FU type, per thread (Count)
system.cpu_cluster.cpus.statIssuedInstType_0::SimdMisc           78      0.00%     61.35% # Number of instructions issued per FU type, per thread (Count)
system.cpu_cluster.cpus.statIssuedInstType_0::SimdMult            0      0.00%     61.35% # Number of instructions issued per FU type, per thread (Count)
system.cpu_cluster.cpus.statIssuedInstType_0::SimdMultAcc            0      0.00%     61.35% # Number of instructions issued per FU type, per thread (Count)
system.cpu_cluster.cpus.statIssuedInstType_0::SimdMatMultAcc            0      0.00%     61.35% # Number of instructions issued per FU type, per thread (Count)
system.cpu_cluster.cpus.statIssuedInstType_0::SimdShift            0      0.00%     61.35% # Number of instructions issued per FU type, per thread (Count)
system.cpu_cluster.cpus.statIssuedInstType_0::SimdShiftAcc            0      0.00%     61.35% # Number of instructions issued per FU type, per thread (Count)
system.cpu_cluster.cpus.statIssuedInstType_0::SimdDiv            0      0.00%     61.35% # Number of instructions issued per FU type, per thread (Count)
system.cpu_cluster.cpus.statIssuedInstType_0::SimdSqrt            0      0.00%     61.35% # Number of instructions issued per FU type, per thread (Count)
system.cpu_cluster.cpus.statIssuedInstType_0::SimdFloatAdd            0      0.00%     61.35% # Number of instructions issued per FU type, per thread (Count)
system.cpu_cluster.cpus.statIssuedInstType_0::SimdFloatAlu            0      0.00%     61.35% # Number of instructions issued per FU type, per thread (Count)
system.cpu_cluster.cpus.statIssuedInstType_0::SimdFloatCmp            0      0.00%     61.35% # Number of instructions issued per FU type, per thread (Count)
system.cpu_cluster.cpus.statIssuedInstType_0::SimdFloatCvt            0      0.00%     61.35% # Number of instructions issued per FU type, per thread (Count)
system.cpu_cluster.cpus.statIssuedInstType_0::SimdFloatDiv            0      0.00%     61.35% # Number of instructions issued per FU type, per thread (Count)
system.cpu_cluster.cpus.statIssuedInstType_0::SimdFloatMisc            0      0.00%     61.35% # Number of instructions issued per FU type, per thread (Count)
system.cpu_cluster.cpus.statIssuedInstType_0::SimdFloatMult            0      0.00%     61.35% # Number of instructions issued per FU type, per thread (Count)
system.cpu_cluster.cpus.statIssuedInstType_0::SimdFloatMultAcc            0      0.00%     61.35% # Number of instructions issued per FU type, per thread (Count)
system.cpu_cluster.cpus.statIssuedInstType_0::SimdFloatMatMultAcc            0      0.00%     61.35% # Number of instructions issued per FU type, per thread (Count)
system.cpu_cluster.cpus.statIssuedInstType_0::SimdFloatSqrt            0      0.00%     61.35% # Number of instructions issued per FU type, per thread (Count)
system.cpu_cluster.cpus.statIssuedInstType_0::SimdReduceAdd            0      0.00%     61.35% # Number of instructions issued per FU type, per thread (Count)
system.cpu_cluster.cpus.statIssuedInstType_0::SimdReduceAlu            0      0.00%     61.35% # Number of instructions issued per FU type, per thread (Count)
system.cpu_cluster.cpus.statIssuedInstType_0::SimdReduceCmp            0      0.00%     61.35% # Number of instructions issued per FU type, per thread (Count)
system.cpu_cluster.cpus.statIssuedInstType_0::SimdFloatReduceAdd            0      0.00%     61.35% # Number of instructions issued per FU type, per thread (Count)
system.cpu_cluster.cpus.statIssuedInstType_0::SimdFloatReduceCmp            0      0.00%     61.35% # Number of instructions issued per FU type, per thread (Count)
system.cpu_cluster.cpus.statIssuedInstType_0::SimdAes            0      0.00%     61.35% # Number of instructions issued per FU type, per thread (Count)
system.cpu_cluster.cpus.statIssuedInstType_0::SimdAesMix            0      0.00%     61.35% # Number of instructions issued per FU type, per thread (Count)
system.cpu_cluster.cpus.statIssuedInstType_0::SimdSha1Hash            0      0.00%     61.35% # Number of instructions issued per FU type, per thread (Count)
system.cpu_cluster.cpus.statIssuedInstType_0::SimdSha1Hash2            0      0.00%     61.35% # Number of instructions issued per FU type, per thread (Count)
system.cpu_cluster.cpus.statIssuedInstType_0::SimdSha256Hash            0      0.00%     61.35% # Number of instructions issued per FU type, per thread (Count)
system.cpu_cluster.cpus.statIssuedInstType_0::SimdSha256Hash2            0      0.00%     61.35% # Number of instructions issued per FU type, per thread (Count)
system.cpu_cluster.cpus.statIssuedInstType_0::SimdShaSigma2            0      0.00%     61.35% # Number of instructions issued per FU type, per thread (Count)
system.cpu_cluster.cpus.statIssuedInstType_0::SimdShaSigma3            0      0.00%     61.35% # Number of instructions issued per FU type, per thread (Count)
system.cpu_cluster.cpus.statIssuedInstType_0::SimdPredAlu            0      0.00%     61.35% # Number of instructions issued per FU type, per thread (Count)
system.cpu_cluster.cpus.statIssuedInstType_0::Matrix            0      0.00%     61.35% # Number of instructions issued per FU type, per thread (Count)
system.cpu_cluster.cpus.statIssuedInstType_0::MatrixMov            0      0.00%     61.35% # Number of instructions issued per FU type, per thread (Count)
system.cpu_cluster.cpus.statIssuedInstType_0::MatrixOP            0      0.00%     61.35% # Number of instructions issued per FU type, per thread (Count)
system.cpu_cluster.cpus.statIssuedInstType_0::MemRead    105295196     26.65%     88.00% # Number of instructions issued per FU type, per thread (Count)
system.cpu_cluster.cpus.statIssuedInstType_0::MemWrite     47417657     12.00%    100.00% # Number of instructions issued per FU type, per thread (Count)
system.cpu_cluster.cpus.statIssuedInstType_0::FloatMemRead            0      0.00%    100.00% # Number of instructions issued per FU type, per thread (Count)
system.cpu_cluster.cpus.statIssuedInstType_0::FloatMemWrite            0      0.00%    100.00% # Number of instructions issued per FU type, per thread (Count)
system.cpu_cluster.cpus.statIssuedInstType_0::IprAccess            0      0.00%    100.00% # Number of instructions issued per FU type, per thread (Count)
system.cpu_cluster.cpus.statIssuedInstType_0::InstPrefetch            0      0.00%    100.00% # Number of instructions issued per FU type, per thread (Count)
system.cpu_cluster.cpus.statIssuedInstType_0::SimdUnitStrideLoad            0      0.00%    100.00% # Number of instructions issued per FU type, per thread (Count)
system.cpu_cluster.cpus.statIssuedInstType_0::SimdUnitStrideStore            0      0.00%    100.00% # Number of instructions issued per FU type, per thread (Count)
system.cpu_cluster.cpus.statIssuedInstType_0::SimdUnitStrideMaskLoad            0      0.00%    100.00% # Number of instructions issued per FU type, per thread (Count)
system.cpu_cluster.cpus.statIssuedInstType_0::SimdUnitStrideMaskStore            0      0.00%    100.00% # Number of instructions issued per FU type, per thread (Count)
system.cpu_cluster.cpus.statIssuedInstType_0::SimdStridedLoad            0      0.00%    100.00% # Number of instructions issued per FU type, per thread (Count)
system.cpu_cluster.cpus.statIssuedInstType_0::SimdStridedStore            0      0.00%    100.00% # Number of instructions issued per FU type, per thread (Count)
system.cpu_cluster.cpus.statIssuedInstType_0::SimdIndexedLoad            0      0.00%    100.00% # Number of instructions issued per FU type, per thread (Count)
system.cpu_cluster.cpus.statIssuedInstType_0::SimdIndexedStore            0      0.00%    100.00% # Number of instructions issued per FU type, per thread (Count)
system.cpu_cluster.cpus.statIssuedInstType_0::SimdWholeRegisterLoad            0      0.00%    100.00% # Number of instructions issued per FU type, per thread (Count)
system.cpu_cluster.cpus.statIssuedInstType_0::SimdWholeRegisterStore            0      0.00%    100.00% # Number of instructions issued per FU type, per thread (Count)
system.cpu_cluster.cpus.statIssuedInstType_0::SimdUnitStrideFaultOnlyFirstLoad            0      0.00%    100.00% # Number of instructions issued per FU type, per thread (Count)
system.cpu_cluster.cpus.statIssuedInstType_0::SimdUnitStrideSegmentedLoad            0      0.00%    100.00% # Number of instructions issued per FU type, per thread (Count)
system.cpu_cluster.cpus.statIssuedInstType_0::SimdUnitStrideSegmentedStore            0      0.00%    100.00% # Number of instructions issued per FU type, per thread (Count)
system.cpu_cluster.cpus.statIssuedInstType_0::SimdExt            0      0.00%    100.00% # Number of instructions issued per FU type, per thread (Count)
system.cpu_cluster.cpus.statIssuedInstType_0::SimdFloatExt            0      0.00%    100.00% # Number of instructions issued per FU type, per thread (Count)
system.cpu_cluster.cpus.statIssuedInstType_0::SimdConfig            0      0.00%    100.00% # Number of instructions issued per FU type, per thread (Count)
system.cpu_cluster.cpus.statIssuedInstType_0::total    395145376                       # Number of instructions issued per FU type, per thread (Count)
system.cpu_cluster.cpus.issueRate            0.068316                       # Inst issue rate ((Count/Cycle))
system.cpu_cluster.cpus.fuBusy               73073139                       # FU busy when requested (Count)
system.cpu_cluster.cpus.fuBusyRate           0.184927                       # FU busy rate (busy events/executed inst) ((Count/Count))
system.cpu_cluster.cpus.intInstQueueReads   6641121328                       # Number of integer instruction queue reads (Count)
system.cpu_cluster.cpus.intInstQueueWrites    379895750                       # Number of integer instruction queue writes (Count)
system.cpu_cluster.cpus.intInstQueueWakeupAccesses    376056025                       # Number of integer instruction queue wakeup accesses (Count)
system.cpu_cluster.cpus.fpInstQueueReads            0                       # Number of floating instruction queue reads (Count)
system.cpu_cluster.cpus.fpInstQueueWrites            0                       # Number of floating instruction queue writes (Count)
system.cpu_cluster.cpus.fpInstQueueWakeupAccesses            0                       # Number of floating instruction queue wakeup accesses (Count)
system.cpu_cluster.cpus.vecInstQueueReads         6052                       # Number of vector instruction queue reads (Count)
system.cpu_cluster.cpus.vecInstQueueWrites         2608                       # Number of vector instruction queue writes (Count)
system.cpu_cluster.cpus.vecInstQueueWakeupAccesses         2349                       # Number of vector instruction queue wakeup accesses (Count)
system.cpu_cluster.cpus.intAluAccesses      468214173                       # Number of integer alu accesses (Count)
system.cpu_cluster.cpus.fpAluAccesses               0                       # Number of floating point alu accesses (Count)
system.cpu_cluster.cpus.vecAluAccesses           3572                       # Number of vector alu accesses (Count)
system.cpu_cluster.cpus.numSquashedInsts       265421                       # Number of squashed instructions skipped in execute (Count)
system.cpu_cluster.cpus.numSwp                      0                       # Number of swp insts executed (Count)
system.cpu_cluster.cpus.timesIdled              33775                       # Number of times that the entire CPU went into an idle state and unscheduled itself (Count)
system.cpu_cluster.cpus.idleCycles            6760978                       # Total number of cycles that the CPU has spent unscheduled due to idling (Cycle)
system.cpu_cluster.cpus.quiesceCycles              23                       # Total number of cycles that CPU has spent quiesced or waiting for an interrupt (Cycle)
system.cpu_cluster.cpus.MemDepUnit__0.insertedLoads     86581799                       # Number of loads inserted to the mem dependence unit. (Count)
system.cpu_cluster.cpus.MemDepUnit__0.insertedStores     47786556                       # Number of stores inserted to the mem dependence unit. (Count)
system.cpu_cluster.cpus.MemDepUnit__0.conflictingLoads       136279                       # Number of conflicting loads. (Count)
system.cpu_cluster.cpus.MemDepUnit__0.conflictingStores        79383                       # Number of conflicting stores. (Count)
system.cpu_cluster.cpus.MemDepUnit__1.insertedLoads            0                       # Number of loads inserted to the mem dependence unit. (Count)
system.cpu_cluster.cpus.MemDepUnit__1.insertedStores            0                       # Number of stores inserted to the mem dependence unit. (Count)
system.cpu_cluster.cpus.MemDepUnit__1.conflictingLoads            0                       # Number of conflicting loads. (Count)
system.cpu_cluster.cpus.MemDepUnit__1.conflictingStores            0                       # Number of conflicting stores. (Count)
system.cpu_cluster.cpus.MemDepUnit__2.insertedLoads            0                       # Number of loads inserted to the mem dependence unit. (Count)
system.cpu_cluster.cpus.MemDepUnit__2.insertedStores            0                       # Number of stores inserted to the mem dependence unit. (Count)
system.cpu_cluster.cpus.MemDepUnit__2.conflictingLoads            0                       # Number of conflicting loads. (Count)
system.cpu_cluster.cpus.MemDepUnit__2.conflictingStores            0                       # Number of conflicting stores. (Count)
system.cpu_cluster.cpus.MemDepUnit__3.insertedLoads            0                       # Number of loads inserted to the mem dependence unit. (Count)
system.cpu_cluster.cpus.MemDepUnit__3.insertedStores            0                       # Number of stores inserted to the mem dependence unit. (Count)
system.cpu_cluster.cpus.MemDepUnit__3.conflictingLoads            0                       # Number of conflicting loads. (Count)
system.cpu_cluster.cpus.MemDepUnit__3.conflictingStores            0                       # Number of conflicting stores. (Count)
system.cpu_cluster.cpus.branchPred.lookups_0::NoBranch         3529      0.00%      0.00% # Number of BP lookups (Count)
system.cpu_cluster.cpus.branchPred.lookups_0::Return      6163326      8.17%      8.18% # Number of BP lookups (Count)
system.cpu_cluster.cpus.branchPred.lookups_0::CallDirect      5924349      7.86%     16.04% # Number of BP lookups (Count)
system.cpu_cluster.cpus.branchPred.lookups_0::CallIndirect        49561      0.07%     16.10% # Number of BP lookups (Count)
system.cpu_cluster.cpus.branchPred.lookups_0::DirectCond     57653661     76.47%     92.57% # Number of BP lookups (Count)
system.cpu_cluster.cpus.branchPred.lookups_0::DirectUncond      2807289      3.72%     96.30% # Number of BP lookups (Count)
system.cpu_cluster.cpus.branchPred.lookups_0::IndirectCond            0      0.00%     96.30% # Number of BP lookups (Count)
system.cpu_cluster.cpus.branchPred.lookups_0::IndirectUncond      2791878      3.70%    100.00% # Number of BP lookups (Count)
system.cpu_cluster.cpus.branchPred.lookups_0::total     75393593                       # Number of BP lookups (Count)
system.cpu_cluster.cpus.branchPred.squashes_0::NoBranch          363      0.02%      0.02% # Number of branches that got squashed (completely removed) as an earlier branch was mispredicted. (Count)
system.cpu_cluster.cpus.branchPred.squashes_0::Return       449112     20.39%     20.41% # Number of branches that got squashed (completely removed) as an earlier branch was mispredicted. (Count)
system.cpu_cluster.cpus.branchPred.squashes_0::CallDirect       252142     11.45%     31.86% # Number of branches that got squashed (completely removed) as an earlier branch was mispredicted. (Count)
system.cpu_cluster.cpus.branchPred.squashes_0::CallIndirect         7540      0.34%     32.20% # Number of branches that got squashed (completely removed) as an earlier branch was mispredicted. (Count)
system.cpu_cluster.cpus.branchPred.squashes_0::DirectCond      1126879     51.17%     83.37% # Number of branches that got squashed (completely removed) as an earlier branch was mispredicted. (Count)
system.cpu_cluster.cpus.branchPred.squashes_0::DirectUncond       196087      8.90%     92.27% # Number of branches that got squashed (completely removed) as an earlier branch was mispredicted. (Count)
system.cpu_cluster.cpus.branchPred.squashes_0::IndirectCond            0      0.00%     92.27% # Number of branches that got squashed (completely removed) as an earlier branch was mispredicted. (Count)
system.cpu_cluster.cpus.branchPred.squashes_0::IndirectUncond       170161      7.73%    100.00% # Number of branches that got squashed (completely removed) as an earlier branch was mispredicted. (Count)
system.cpu_cluster.cpus.branchPred.squashes_0::total      2202284                       # Number of branches that got squashed (completely removed) as an earlier branch was mispredicted. (Count)
system.cpu_cluster.cpus.branchPred.corrected_0::NoBranch         3166      1.21%      1.21% # Number of branches that got corrected but not yet commited. Branches get corrected by decode or after execute. Also a branch misprediction can be detected out-of-order. Therefore, a corrected branch might not end up beeing committed in case an even earlier branch was mispredicted (Count)
system.cpu_cluster.cpus.branchPred.corrected_0::Return          310      0.12%      1.33% # Number of branches that got corrected but not yet commited. Branches get corrected by decode or after execute. Also a branch misprediction can be detected out-of-order. Therefore, a corrected branch might not end up beeing committed in case an even earlier branch was mispredicted (Count)
system.cpu_cluster.cpus.branchPred.corrected_0::CallDirect        23478      9.00%     10.33% # Number of branches that got corrected but not yet commited. Branches get corrected by decode or after execute. Also a branch misprediction can be detected out-of-order. Therefore, a corrected branch might not end up beeing committed in case an even earlier branch was mispredicted (Count)
system.cpu_cluster.cpus.branchPred.corrected_0::CallIndirect          751      0.29%     10.62% # Number of branches that got corrected but not yet commited. Branches get corrected by decode or after execute. Also a branch misprediction can be detected out-of-order. Therefore, a corrected branch might not end up beeing committed in case an even earlier branch was mispredicted (Count)
system.cpu_cluster.cpus.branchPred.corrected_0::DirectCond       226845     86.94%     97.56% # Number of branches that got corrected but not yet commited. Branches get corrected by decode or after execute. Also a branch misprediction can be detected out-of-order. Therefore, a corrected branch might not end up beeing committed in case an even earlier branch was mispredicted (Count)
system.cpu_cluster.cpus.branchPred.corrected_0::DirectUncond         6159      2.36%     99.92% # Number of branches that got corrected but not yet commited. Branches get corrected by decode or after execute. Also a branch misprediction can be detected out-of-order. Therefore, a corrected branch might not end up beeing committed in case an even earlier branch was mispredicted (Count)
system.cpu_cluster.cpus.branchPred.corrected_0::IndirectCond            0      0.00%     99.92% # Number of branches that got corrected but not yet commited. Branches get corrected by decode or after execute. Also a branch misprediction can be detected out-of-order. Therefore, a corrected branch might not end up beeing committed in case an even earlier branch was mispredicted (Count)
system.cpu_cluster.cpus.branchPred.corrected_0::IndirectUncond          204      0.08%    100.00% # Number of branches that got corrected but not yet commited. Branches get corrected by decode or after execute. Also a branch misprediction can be detected out-of-order. Therefore, a corrected branch might not end up beeing committed in case an even earlier branch was mispredicted (Count)
system.cpu_cluster.cpus.branchPred.corrected_0::total       260913                       # Number of branches that got corrected but not yet commited. Branches get corrected by decode or after execute. Also a branch misprediction can be detected out-of-order. Therefore, a corrected branch might not end up beeing committed in case an even earlier branch was mispredicted (Count)
system.cpu_cluster.cpus.branchPred.earlyResteers_0::NoBranch            0                       # Number of branches that got redirected after decode. (Count)
system.cpu_cluster.cpus.branchPred.earlyResteers_0::Return            0                       # Number of branches that got redirected after decode. (Count)
system.cpu_cluster.cpus.branchPred.earlyResteers_0::CallDirect            0                       # Number of branches that got redirected after decode. (Count)
system.cpu_cluster.cpus.branchPred.earlyResteers_0::CallIndirect            0                       # Number of branches that got redirected after decode. (Count)
system.cpu_cluster.cpus.branchPred.earlyResteers_0::DirectCond            0                       # Number of branches that got redirected after decode. (Count)
system.cpu_cluster.cpus.branchPred.earlyResteers_0::DirectUncond            0                       # Number of branches that got redirected after decode. (Count)
system.cpu_cluster.cpus.branchPred.earlyResteers_0::IndirectCond            0                       # Number of branches that got redirected after decode. (Count)
system.cpu_cluster.cpus.branchPred.earlyResteers_0::IndirectUncond            0                       # Number of branches that got redirected after decode. (Count)
system.cpu_cluster.cpus.branchPred.earlyResteers_0::total            0                       # Number of branches that got redirected after decode. (Count)
system.cpu_cluster.cpus.branchPred.committed_0::NoBranch         3166      0.00%      0.00% # Number of branches finally committed  (Count)
system.cpu_cluster.cpus.branchPred.committed_0::Return      5714214      7.81%      7.81% # Number of branches finally committed  (Count)
system.cpu_cluster.cpus.branchPred.committed_0::CallDirect      5672207      7.75%     15.56% # Number of branches finally committed  (Count)
system.cpu_cluster.cpus.branchPred.committed_0::CallIndirect        42021      0.06%     15.62% # Number of branches finally committed  (Count)
system.cpu_cluster.cpus.branchPred.committed_0::DirectCond     56526782     77.23%     92.85% # Number of branches finally committed  (Count)
system.cpu_cluster.cpus.branchPred.committed_0::DirectUncond      2611202      3.57%     96.42% # Number of branches finally committed  (Count)
system.cpu_cluster.cpus.branchPred.committed_0::IndirectCond            0      0.00%     96.42% # Number of branches finally committed  (Count)
system.cpu_cluster.cpus.branchPred.committed_0::IndirectUncond      2621717      3.58%    100.00% # Number of branches finally committed  (Count)
system.cpu_cluster.cpus.branchPred.committed_0::total     73191309                       # Number of branches finally committed  (Count)
system.cpu_cluster.cpus.branchPred.mispredicted_0::NoBranch         3166      1.24%      1.24% # Number of committed branches that were mispredicted. (Count)
system.cpu_cluster.cpus.branchPred.mispredicted_0::Return          237      0.09%      1.34% # Number of committed branches that were mispredicted. (Count)
system.cpu_cluster.cpus.branchPred.mispredicted_0::CallDirect        20366      8.00%      9.34% # Number of committed branches that were mispredicted. (Count)
system.cpu_cluster.cpus.branchPred.mispredicted_0::CallIndirect          728      0.29%      9.62% # Number of committed branches that were mispredicted. (Count)
system.cpu_cluster.cpus.branchPred.mispredicted_0::DirectCond       225056     88.39%     98.01% # Number of committed branches that were mispredicted. (Count)
system.cpu_cluster.cpus.branchPred.mispredicted_0::DirectUncond         4883      1.92%     99.93% # Number of committed branches that were mispredicted. (Count)
system.cpu_cluster.cpus.branchPred.mispredicted_0::IndirectCond            0      0.00%     99.93% # Number of committed branches that were mispredicted. (Count)
system.cpu_cluster.cpus.branchPred.mispredicted_0::IndirectUncond          178      0.07%    100.00% # Number of committed branches that were mispredicted. (Count)
system.cpu_cluster.cpus.branchPred.mispredicted_0::total       254614                       # Number of committed branches that were mispredicted. (Count)
system.cpu_cluster.cpus.branchPred.targetProvider_0::NoTarget     22600651     29.98%     29.98% # The component providing the target for taken branches (Count)
system.cpu_cluster.cpus.branchPred.targetProvider_0::BTB     43794486     58.09%     88.06% # The component providing the target for taken branches (Count)
system.cpu_cluster.cpus.branchPred.targetProvider_0::RAS      6163326      8.17%     96.24% # The component providing the target for taken branches (Count)
system.cpu_cluster.cpus.branchPred.targetProvider_0::Indirect      2835130      3.76%    100.00% # The component providing the target for taken branches (Count)
system.cpu_cluster.cpus.branchPred.targetProvider_0::total     75393593                       # The component providing the target for taken branches (Count)
system.cpu_cluster.cpus.branchPred.targetWrong_0::NoBranch        76825     29.44%     29.44% # Number of branches where the target was incorrect or not available at prediction time. (Count)
system.cpu_cluster.cpus.branchPred.targetWrong_0::Return       183698     70.41%     99.85% # Number of branches where the target was incorrect or not available at prediction time. (Count)
system.cpu_cluster.cpus.branchPred.targetWrong_0::CallDirect          310      0.12%     99.97% # Number of branches where the target was incorrect or not available at prediction time. (Count)
system.cpu_cluster.cpus.branchPred.targetWrong_0::CallIndirect           80      0.03%    100.00% # Number of branches where the target was incorrect or not available at prediction time. (Count)
system.cpu_cluster.cpus.branchPred.targetWrong_0::DirectCond            0      0.00%    100.00% # Number of branches where the target was incorrect or not available at prediction time. (Count)
system.cpu_cluster.cpus.branchPred.targetWrong_0::DirectUncond            0      0.00%    100.00% # Number of branches where the target was incorrect or not available at prediction time. (Count)
system.cpu_cluster.cpus.branchPred.targetWrong_0::IndirectCond            0      0.00%    100.00% # Number of branches where the target was incorrect or not available at prediction time. (Count)
system.cpu_cluster.cpus.branchPred.targetWrong_0::IndirectUncond            0      0.00%    100.00% # Number of branches where the target was incorrect or not available at prediction time. (Count)
system.cpu_cluster.cpus.branchPred.targetWrong_0::total       260913                       # Number of branches where the target was incorrect or not available at prediction time. (Count)
system.cpu_cluster.cpus.branchPred.condPredicted     57657190                       # Number of conditional branches predicted (Count)
system.cpu_cluster.cpus.branchPred.condPredictedTaken     35195911                       # Number of conditional branches predicted as taken (Count)
system.cpu_cluster.cpus.branchPred.condIncorrect       260913                       # Number of conditional branches incorrect (Count)
system.cpu_cluster.cpus.branchPred.predTakenBTBMiss        50527                       # Number of branches predicted taken but missed in BTB (Count)
system.cpu_cluster.cpus.branchPred.NotTakenMispredicted        77215                       # Number branches predicted 'not taken' but turned out to be taken (Count)
system.cpu_cluster.cpus.branchPred.TakenMispredicted       183698                       # Number branches predicted taken but are actually not taken (Count)
system.cpu_cluster.cpus.branchPred.BTBLookups     75393593                       # Number of BTB lookups (Count)
system.cpu_cluster.cpus.branchPred.BTBUpdates        72784                       # Number of BTB updates (Count)
system.cpu_cluster.cpus.branchPred.BTBHits     46690124                       # Number of BTB hits (Count)
system.cpu_cluster.cpus.branchPred.BTBHitRatio     0.619285                       # BTB Hit Ratio (Ratio)
system.cpu_cluster.cpus.branchPred.BTBMispredicted        53065                       # Number BTB mispredictions. No target found or target wrong (Count)
system.cpu_cluster.cpus.branchPred.indirectLookups      2841439                       # Number of indirect predictor lookups. (Count)
system.cpu_cluster.cpus.branchPred.indirectHits      2835130                       # Number of indirect target hits. (Count)
system.cpu_cluster.cpus.branchPred.indirectMisses         6309                       # Number of indirect misses. (Count)
system.cpu_cluster.cpus.branchPred.indirectMispredicted            0                       # Number of mispredicted indirect branches. (Count)
system.cpu_cluster.cpus.branchPred.btb.lookups::NoBranch         3529      0.00%      0.00% # Number of BTB lookups (Count)
system.cpu_cluster.cpus.branchPred.btb.lookups::Return      6163326      8.17%      8.18% # Number of BTB lookups (Count)
system.cpu_cluster.cpus.branchPred.btb.lookups::CallDirect      5924349      7.86%     16.04% # Number of BTB lookups (Count)
system.cpu_cluster.cpus.branchPred.btb.lookups::CallIndirect        49561      0.07%     16.10% # Number of BTB lookups (Count)
system.cpu_cluster.cpus.branchPred.btb.lookups::DirectCond     57653661     76.47%     92.57% # Number of BTB lookups (Count)
system.cpu_cluster.cpus.branchPred.btb.lookups::DirectUncond      2807289      3.72%     96.30% # Number of BTB lookups (Count)
system.cpu_cluster.cpus.branchPred.btb.lookups::IndirectCond            0      0.00%     96.30% # Number of BTB lookups (Count)
system.cpu_cluster.cpus.branchPred.btb.lookups::IndirectUncond      2791878      3.70%    100.00% # Number of BTB lookups (Count)
system.cpu_cluster.cpus.branchPred.btb.lookups::total     75393593                       # Number of BTB lookups (Count)
system.cpu_cluster.cpus.branchPred.btb.misses::NoBranch         3529      0.01%      0.01% # Number of BTB misses (Count)
system.cpu_cluster.cpus.branchPred.btb.misses::Return      6163326     21.47%     21.48% # Number of BTB misses (Count)
system.cpu_cluster.cpus.branchPred.btb.misses::CallDirect        35989      0.13%     21.61% # Number of BTB misses (Count)
system.cpu_cluster.cpus.branchPred.btb.misses::CallIndirect        49561      0.17%     21.78% # Number of BTB misses (Count)
system.cpu_cluster.cpus.branchPred.btb.misses::DirectCond     19646993     68.45%     90.23% # Number of BTB misses (Count)
system.cpu_cluster.cpus.branchPred.btb.misses::DirectUncond        12193      0.04%     90.27% # Number of BTB misses (Count)
system.cpu_cluster.cpus.branchPred.btb.misses::IndirectCond            0      0.00%     90.27% # Number of BTB misses (Count)
system.cpu_cluster.cpus.branchPred.btb.misses::IndirectUncond      2791878      9.73%    100.00% # Number of BTB misses (Count)
system.cpu_cluster.cpus.branchPred.btb.misses::total     28703469                       # Number of BTB misses (Count)
system.cpu_cluster.cpus.branchPred.btb.updates::NoBranch            0      0.00%      0.00% # Number of BTB updates (Count)
system.cpu_cluster.cpus.branchPred.btb.updates::Return            0      0.00%      0.00% # Number of BTB updates (Count)
system.cpu_cluster.cpus.branchPred.btb.updates::CallDirect        23478     32.26%     32.26% # Number of BTB updates (Count)
system.cpu_cluster.cpus.branchPred.btb.updates::CallIndirect            0      0.00%     32.26% # Number of BTB updates (Count)
system.cpu_cluster.cpus.branchPred.btb.updates::DirectCond        43147     59.28%     91.54% # Number of BTB updates (Count)
system.cpu_cluster.cpus.branchPred.btb.updates::DirectUncond         6159      8.46%    100.00% # Number of BTB updates (Count)
system.cpu_cluster.cpus.branchPred.btb.updates::IndirectCond            0      0.00%    100.00% # Number of BTB updates (Count)
system.cpu_cluster.cpus.branchPred.btb.updates::IndirectUncond            0      0.00%    100.00% # Number of BTB updates (Count)
system.cpu_cluster.cpus.branchPred.btb.updates::total        72784                       # Number of BTB updates (Count)
system.cpu_cluster.cpus.branchPred.btb.mispredict::NoBranch            0      0.00%      0.00% # Number of BTB mispredictions. No target found or target wrong. (Count)
system.cpu_cluster.cpus.branchPred.btb.mispredict::Return            0      0.00%      0.00% # Number of BTB mispredictions. No target found or target wrong. (Count)
system.cpu_cluster.cpus.branchPred.btb.mispredict::CallDirect        23478     32.26%     32.26% # Number of BTB mispredictions. No target found or target wrong. (Count)
system.cpu_cluster.cpus.branchPred.btb.mispredict::CallIndirect            0      0.00%     32.26% # Number of BTB mispredictions. No target found or target wrong. (Count)
system.cpu_cluster.cpus.branchPred.btb.mispredict::DirectCond        43147     59.28%     91.54% # Number of BTB mispredictions. No target found or target wrong. (Count)
system.cpu_cluster.cpus.branchPred.btb.mispredict::DirectUncond         6159      8.46%    100.00% # Number of BTB mispredictions. No target found or target wrong. (Count)
system.cpu_cluster.cpus.branchPred.btb.mispredict::IndirectCond            0      0.00%    100.00% # Number of BTB mispredictions. No target found or target wrong. (Count)
system.cpu_cluster.cpus.branchPred.btb.mispredict::IndirectUncond            0      0.00%    100.00% # Number of BTB mispredictions. No target found or target wrong. (Count)
system.cpu_cluster.cpus.branchPred.btb.mispredict::total        72784                       # Number of BTB mispredictions. No target found or target wrong. (Count)
system.cpu_cluster.cpus.branchPred.btb.power_state.pwrStateResidencyTicks::UNDEFINED 1677692930750                       # Cumulative time (in ticks) in various power states (Tick)
system.cpu_cluster.cpus.branchPred.indirectBranchPred.lookups      2841439                       # Number of lookups (Count)
system.cpu_cluster.cpus.branchPred.indirectBranchPred.hits      2835130                       # Number of hits of a tag (Count)
system.cpu_cluster.cpus.branchPred.indirectBranchPred.misses         6309                       # Number of misses (Count)
system.cpu_cluster.cpus.branchPred.indirectBranchPred.targetRecords          955                       # Number of targets that where recorded/installed in the cache (Count)
system.cpu_cluster.cpus.branchPred.indirectBranchPred.indirectRecords      2842394                       # Number of indirect branches/calls recorded in the indirect hist (Count)
system.cpu_cluster.cpus.branchPred.indirectBranchPred.speculativeOverflows            0                       # Number of times more than the allowed capacity for speculative branches/calls where in flight and destroy the path history (Count)
system.cpu_cluster.cpus.branchPred.ras.pushes      6423022                       # Number of times a PC was pushed onto the RAS (Count)
system.cpu_cluster.cpus.branchPred.ras.pops      6423008                       # Number of times a PC was poped from the RAS (Count)
system.cpu_cluster.cpus.branchPred.ras.squashes       708794                       # Number of times the stack operation was squashed due to wrong speculation. (Count)
system.cpu_cluster.cpus.branchPred.ras.used      5714214                       # Number of times the RAS is the provider (Count)
system.cpu_cluster.cpus.branchPred.ras.correct      5713977                       # Number of times the RAS is the provider and the prediction is correct (Count)
system.cpu_cluster.cpus.branchPred.ras.incorrect          237                       # Number of times the RAS is the provider and the prediction is wrong (Count)
system.cpu_cluster.cpus.commit.commitSquashedInsts      1804849                       # The number of squashed insts skipped by commit (Count)
system.cpu_cluster.cpus.commit.commitNonSpecStalls      5351290                       # The number of times commit has been forced to stall to communicate backwards (Count)
system.cpu_cluster.cpus.commit.branchMispredicts       231602                       # The number of times a branch was mispredicted (Count)
system.cpu_cluster.cpus.commit.numCommittedDist::samples   5777054628                       # Number of insts commited each cycle (Count)
system.cpu_cluster.cpus.commit.numCommittedDist::mean     0.064930                       # Number of insts commited each cycle (Count)
system.cpu_cluster.cpus.commit.numCommittedDist::stdev     0.523464                       # Number of insts commited each cycle (Count)
system.cpu_cluster.cpus.commit.numCommittedDist::underflows            0      0.00%      0.00% # Number of insts commited each cycle (Count)
system.cpu_cluster.cpus.commit.numCommittedDist::0   5627822589     97.42%     97.42% # Number of insts commited each cycle (Count)
system.cpu_cluster.cpus.commit.numCommittedDist::1     72782899      1.26%     98.68% # Number of insts commited each cycle (Count)
system.cpu_cluster.cpus.commit.numCommittedDist::2     26777440      0.46%     99.14% # Number of insts commited each cycle (Count)
system.cpu_cluster.cpus.commit.numCommittedDist::3     11998654      0.21%     99.35% # Number of insts commited each cycle (Count)
system.cpu_cluster.cpus.commit.numCommittedDist::4     15411052      0.27%     99.61% # Number of insts commited each cycle (Count)
system.cpu_cluster.cpus.commit.numCommittedDist::5      8629013      0.15%     99.76% # Number of insts commited each cycle (Count)
system.cpu_cluster.cpus.commit.numCommittedDist::6       446463      0.01%     99.77% # Number of insts commited each cycle (Count)
system.cpu_cluster.cpus.commit.numCommittedDist::7       189159      0.00%     99.78% # Number of insts commited each cycle (Count)
system.cpu_cluster.cpus.commit.numCommittedDist::8     12997359      0.22%    100.00% # Number of insts commited each cycle (Count)
system.cpu_cluster.cpus.commit.numCommittedDist::overflows            0      0.00%    100.00% # Number of insts commited each cycle (Count)
system.cpu_cluster.cpus.commit.numCommittedDist::min_value            0                       # Number of insts commited each cycle (Count)
system.cpu_cluster.cpus.commit.numCommittedDist::max_value            8                       # Number of insts commited each cycle (Count)
system.cpu_cluster.cpus.commit.numCommittedDist::total   5777054628                       # Number of insts commited each cycle (Count)
system.cpu_cluster.cpus.commit.amos                 0                       # Number of atomic instructions committed (Count)
system.cpu_cluster.cpus.commit.membars        5302030                       # Number of memory barriers committed (Count)
system.cpu_cluster.cpus.commit.functionCalls      5714228                       # Number of function calls committed. (Count)
system.cpu_cluster.cpus.commit.committedInstType_0::No_OpClass           14      0.00%      0.00% # Class of committed instruction (Count)
system.cpu_cluster.cpus.commit.committedInstType_0::IntAlu    236063416     62.93%     62.93% # Class of committed instruction (Count)
system.cpu_cluster.cpus.commit.committedInstType_0::IntMult      2644532      0.71%     63.64% # Class of committed instruction (Count)
system.cpu_cluster.cpus.commit.committedInstType_0::IntDiv      2623427      0.70%     64.34% # Class of committed instruction (Count)
system.cpu_cluster.cpus.commit.committedInstType_0::FloatAdd            0      0.00%     64.34% # Class of committed instruction (Count)
system.cpu_cluster.cpus.commit.committedInstType_0::FloatCmp            9      0.00%     64.34% # Class of committed instruction (Count)
system.cpu_cluster.cpus.commit.committedInstType_0::FloatCvt           15      0.00%     64.34% # Class of committed instruction (Count)
system.cpu_cluster.cpus.commit.committedInstType_0::FloatMult            6      0.00%     64.34% # Class of committed instruction (Count)
system.cpu_cluster.cpus.commit.committedInstType_0::FloatMultAcc            0      0.00%     64.34% # Class of committed instruction (Count)
system.cpu_cluster.cpus.commit.committedInstType_0::FloatDiv            5      0.00%     64.34% # Class of committed instruction (Count)
system.cpu_cluster.cpus.commit.committedInstType_0::FloatMisc            8      0.00%     64.34% # Class of committed instruction (Count)
system.cpu_cluster.cpus.commit.committedInstType_0::FloatSqrt            0      0.00%     64.34% # Class of committed instruction (Count)
system.cpu_cluster.cpus.commit.committedInstType_0::SimdAdd           43      0.00%     64.34% # Class of committed instruction (Count)
system.cpu_cluster.cpus.commit.committedInstType_0::SimdAddAcc            0      0.00%     64.34% # Class of committed instruction (Count)
system.cpu_cluster.cpus.commit.committedInstType_0::SimdAlu           77      0.00%     64.34% # Class of committed instruction (Count)
system.cpu_cluster.cpus.commit.committedInstType_0::SimdCmp           56      0.00%     64.34% # Class of committed instruction (Count)
system.cpu_cluster.cpus.commit.committedInstType_0::SimdCvt            0      0.00%     64.34% # Class of committed instruction (Count)
system.cpu_cluster.cpus.commit.committedInstType_0::SimdMisc           66      0.00%     64.34% # Class of committed instruction (Count)
system.cpu_cluster.cpus.commit.committedInstType_0::SimdMult            0      0.00%     64.34% # Class of committed instruction (Count)
system.cpu_cluster.cpus.commit.committedInstType_0::SimdMultAcc            0      0.00%     64.34% # Class of committed instruction (Count)
system.cpu_cluster.cpus.commit.committedInstType_0::SimdMatMultAcc            0      0.00%     64.34% # Class of committed instruction (Count)
system.cpu_cluster.cpus.commit.committedInstType_0::SimdShift            0      0.00%     64.34% # Class of committed instruction (Count)
system.cpu_cluster.cpus.commit.committedInstType_0::SimdShiftAcc            0      0.00%     64.34% # Class of committed instruction (Count)
system.cpu_cluster.cpus.commit.committedInstType_0::SimdDiv            0      0.00%     64.34% # Class of committed instruction (Count)
system.cpu_cluster.cpus.commit.committedInstType_0::SimdSqrt            0      0.00%     64.34% # Class of committed instruction (Count)
system.cpu_cluster.cpus.commit.committedInstType_0::SimdFloatAdd            0      0.00%     64.34% # Class of committed instruction (Count)
system.cpu_cluster.cpus.commit.committedInstType_0::SimdFloatAlu            0      0.00%     64.34% # Class of committed instruction (Count)
system.cpu_cluster.cpus.commit.committedInstType_0::SimdFloatCmp            0      0.00%     64.34% # Class of committed instruction (Count)
system.cpu_cluster.cpus.commit.committedInstType_0::SimdFloatCvt            0      0.00%     64.34% # Class of committed instruction (Count)
system.cpu_cluster.cpus.commit.committedInstType_0::SimdFloatDiv            0      0.00%     64.34% # Class of committed instruction (Count)
system.cpu_cluster.cpus.commit.committedInstType_0::SimdFloatMisc            0      0.00%     64.34% # Class of committed instruction (Count)
system.cpu_cluster.cpus.commit.committedInstType_0::SimdFloatMult            0      0.00%     64.34% # Class of committed instruction (Count)
system.cpu_cluster.cpus.commit.committedInstType_0::SimdFloatMultAcc            0      0.00%     64.34% # Class of committed instruction (Count)
system.cpu_cluster.cpus.commit.committedInstType_0::SimdFloatMatMultAcc            0      0.00%     64.34% # Class of committed instruction (Count)
system.cpu_cluster.cpus.commit.committedInstType_0::SimdFloatSqrt            0      0.00%     64.34% # Class of committed instruction (Count)
system.cpu_cluster.cpus.commit.committedInstType_0::SimdReduceAdd            0      0.00%     64.34% # Class of committed instruction (Count)
system.cpu_cluster.cpus.commit.committedInstType_0::SimdReduceAlu            0      0.00%     64.34% # Class of committed instruction (Count)
system.cpu_cluster.cpus.commit.committedInstType_0::SimdReduceCmp            0      0.00%     64.34% # Class of committed instruction (Count)
system.cpu_cluster.cpus.commit.committedInstType_0::SimdFloatReduceAdd            0      0.00%     64.34% # Class of committed instruction (Count)
system.cpu_cluster.cpus.commit.committedInstType_0::SimdFloatReduceCmp            0      0.00%     64.34% # Class of committed instruction (Count)
system.cpu_cluster.cpus.commit.committedInstType_0::SimdAes            0      0.00%     64.34% # Class of committed instruction (Count)
system.cpu_cluster.cpus.commit.committedInstType_0::SimdAesMix            0      0.00%     64.34% # Class of committed instruction (Count)
system.cpu_cluster.cpus.commit.committedInstType_0::SimdSha1Hash            0      0.00%     64.34% # Class of committed instruction (Count)
system.cpu_cluster.cpus.commit.committedInstType_0::SimdSha1Hash2            0      0.00%     64.34% # Class of committed instruction (Count)
system.cpu_cluster.cpus.commit.committedInstType_0::SimdSha256Hash            0      0.00%     64.34% # Class of committed instruction (Count)
system.cpu_cluster.cpus.commit.committedInstType_0::SimdSha256Hash2            0      0.00%     64.34% # Class of committed instruction (Count)
system.cpu_cluster.cpus.commit.committedInstType_0::SimdShaSigma2            0      0.00%     64.34% # Class of committed instruction (Count)
system.cpu_cluster.cpus.commit.committedInstType_0::SimdShaSigma3            0      0.00%     64.34% # Class of committed instruction (Count)
system.cpu_cluster.cpus.commit.committedInstType_0::SimdPredAlu            0      0.00%     64.34% # Class of committed instruction (Count)
system.cpu_cluster.cpus.commit.committedInstType_0::Matrix            0      0.00%     64.34% # Class of committed instruction (Count)
system.cpu_cluster.cpus.commit.committedInstType_0::MatrixMov            0      0.00%     64.34% # Class of committed instruction (Count)
system.cpu_cluster.cpus.commit.committedInstType_0::MatrixOP            0      0.00%     64.34% # Class of committed instruction (Count)
system.cpu_cluster.cpus.commit.committedInstType_0::MemRead     86436366     23.04%     87.38% # Class of committed instruction (Count)
system.cpu_cluster.cpus.commit.committedInstType_0::MemWrite     47336737     12.62%    100.00% # Class of committed instruction (Count)
system.cpu_cluster.cpus.commit.committedInstType_0::FloatMemRead            0      0.00%    100.00% # Class of committed instruction (Count)
system.cpu_cluster.cpus.commit.committedInstType_0::FloatMemWrite            0      0.00%    100.00% # Class of committed instruction (Count)
system.cpu_cluster.cpus.commit.committedInstType_0::IprAccess            0      0.00%    100.00% # Class of committed instruction (Count)
system.cpu_cluster.cpus.commit.committedInstType_0::InstPrefetch            0      0.00%    100.00% # Class of committed instruction (Count)
system.cpu_cluster.cpus.commit.committedInstType_0::SimdUnitStrideLoad            0      0.00%    100.00% # Class of committed instruction (Count)
system.cpu_cluster.cpus.commit.committedInstType_0::SimdUnitStrideStore            0      0.00%    100.00% # Class of committed instruction (Count)
system.cpu_cluster.cpus.commit.committedInstType_0::SimdUnitStrideMaskLoad            0      0.00%    100.00% # Class of committed instruction (Count)
system.cpu_cluster.cpus.commit.committedInstType_0::SimdUnitStrideMaskStore            0      0.00%    100.00% # Class of committed instruction (Count)
system.cpu_cluster.cpus.commit.committedInstType_0::SimdStridedLoad            0      0.00%    100.00% # Class of committed instruction (Count)
system.cpu_cluster.cpus.commit.committedInstType_0::SimdStridedStore            0      0.00%    100.00% # Class of committed instruction (Count)
system.cpu_cluster.cpus.commit.committedInstType_0::SimdIndexedLoad            0      0.00%    100.00% # Class of committed instruction (Count)
system.cpu_cluster.cpus.commit.committedInstType_0::SimdIndexedStore            0      0.00%    100.00% # Class of committed instruction (Count)
system.cpu_cluster.cpus.commit.committedInstType_0::SimdWholeRegisterLoad            0      0.00%    100.00% # Class of committed instruction (Count)
system.cpu_cluster.cpus.commit.committedInstType_0::SimdWholeRegisterStore            0      0.00%    100.00% # Class of committed instruction (Count)
system.cpu_cluster.cpus.commit.committedInstType_0::SimdUnitStrideFaultOnlyFirstLoad            0      0.00%    100.00% # Class of committed instruction (Count)
system.cpu_cluster.cpus.commit.committedInstType_0::SimdUnitStrideSegmentedLoad            0      0.00%    100.00% # Class of committed instruction (Count)
system.cpu_cluster.cpus.commit.committedInstType_0::SimdUnitStrideSegmentedStore            0      0.00%    100.00% # Class of committed instruction (Count)
system.cpu_cluster.cpus.commit.committedInstType_0::SimdExt            0      0.00%    100.00% # Class of committed instruction (Count)
system.cpu_cluster.cpus.commit.committedInstType_0::SimdFloatExt            0      0.00%    100.00% # Class of committed instruction (Count)
system.cpu_cluster.cpus.commit.committedInstType_0::SimdConfig            0      0.00%    100.00% # Class of committed instruction (Count)
system.cpu_cluster.cpus.commit.committedInstType_0::total    375104777                       # Class of committed instruction (Count)
system.cpu_cluster.cpus.commit.commitEligibleSamples     12997359                       # number cycles where commit BW limit reached (Cycle)
system.cpu_cluster.cpus.commitStats0.numInsts    340442541                       # Number of instructions committed (thread level) (Count)
system.cpu_cluster.cpus.commitStats0.numOps    375104777                       # Number of ops (including micro ops) committed (thread level) (Count)
system.cpu_cluster.cpus.commitStats0.numInstsNotNOP    340414436                       # Number of instructions committed excluding NOPs or prefetches (Count)
system.cpu_cluster.cpus.commitStats0.numOpsNotNOP    375076672                       # Number of Ops (including micro ops) Simulated (Count)
system.cpu_cluster.cpus.commitStats0.cpi    16.990013                       # CPI: cycles per instruction (thread level) ((Cycle/Count))
system.cpu_cluster.cpus.commitStats0.ipc     0.058858                       # IPC: instructions per cycle (thread level) ((Count/Cycle))
system.cpu_cluster.cpus.commitStats0.numMemRefs    133773103                       # Number of memory references committed (Count)
system.cpu_cluster.cpus.commitStats0.numFpInsts            0                       # Number of float instructions (Count)
system.cpu_cluster.cpus.commitStats0.numIntInsts    345485319                       # Number of integer instructions (Count)
system.cpu_cluster.cpus.commitStats0.numLoadInsts     86436366                       # Number of load instructions (Count)
system.cpu_cluster.cpus.commitStats0.numStoreInsts     47336737                       # Number of store instructions (Count)
system.cpu_cluster.cpus.commitStats0.numVecInsts         2328                       # Number of vector instructions (Count)
system.cpu_cluster.cpus.commitStats0.committedInstType::No_OpClass           14      0.00%      0.00% # Class of committed instruction. (Count)
system.cpu_cluster.cpus.commitStats0.committedInstType::IntAlu    236063416     62.93%     62.93% # Class of committed instruction. (Count)
system.cpu_cluster.cpus.commitStats0.committedInstType::IntMult      2644532      0.71%     63.64% # Class of committed instruction. (Count)
system.cpu_cluster.cpus.commitStats0.committedInstType::IntDiv      2623427      0.70%     64.34% # Class of committed instruction. (Count)
system.cpu_cluster.cpus.commitStats0.committedInstType::FloatAdd            0      0.00%     64.34% # Class of committed instruction. (Count)
system.cpu_cluster.cpus.commitStats0.committedInstType::FloatCmp            9      0.00%     64.34% # Class of committed instruction. (Count)
system.cpu_cluster.cpus.commitStats0.committedInstType::FloatCvt           15      0.00%     64.34% # Class of committed instruction. (Count)
system.cpu_cluster.cpus.commitStats0.committedInstType::FloatMult            6      0.00%     64.34% # Class of committed instruction. (Count)
system.cpu_cluster.cpus.commitStats0.committedInstType::FloatMultAcc            0      0.00%     64.34% # Class of committed instruction. (Count)
system.cpu_cluster.cpus.commitStats0.committedInstType::FloatDiv            5      0.00%     64.34% # Class of committed instruction. (Count)
system.cpu_cluster.cpus.commitStats0.committedInstType::FloatMisc            8      0.00%     64.34% # Class of committed instruction. (Count)
system.cpu_cluster.cpus.commitStats0.committedInstType::FloatSqrt            0      0.00%     64.34% # Class of committed instruction. (Count)
system.cpu_cluster.cpus.commitStats0.committedInstType::SimdAdd           43      0.00%     64.34% # Class of committed instruction. (Count)
system.cpu_cluster.cpus.commitStats0.committedInstType::SimdAddAcc            0      0.00%     64.34% # Class of committed instruction. (Count)
system.cpu_cluster.cpus.commitStats0.committedInstType::SimdAlu           77      0.00%     64.34% # Class of committed instruction. (Count)
system.cpu_cluster.cpus.commitStats0.committedInstType::SimdCmp           56      0.00%     64.34% # Class of committed instruction. (Count)
system.cpu_cluster.cpus.commitStats0.committedInstType::SimdCvt            0      0.00%     64.34% # Class of committed instruction. (Count)
system.cpu_cluster.cpus.commitStats0.committedInstType::SimdMisc           66      0.00%     64.34% # Class of committed instruction. (Count)
system.cpu_cluster.cpus.commitStats0.committedInstType::SimdMult            0      0.00%     64.34% # Class of committed instruction. (Count)
system.cpu_cluster.cpus.commitStats0.committedInstType::SimdMultAcc            0      0.00%     64.34% # Class of committed instruction. (Count)
system.cpu_cluster.cpus.commitStats0.committedInstType::SimdMatMultAcc            0      0.00%     64.34% # Class of committed instruction. (Count)
system.cpu_cluster.cpus.commitStats0.committedInstType::SimdShift            0      0.00%     64.34% # Class of committed instruction. (Count)
system.cpu_cluster.cpus.commitStats0.committedInstType::SimdShiftAcc            0      0.00%     64.34% # Class of committed instruction. (Count)
system.cpu_cluster.cpus.commitStats0.committedInstType::SimdDiv            0      0.00%     64.34% # Class of committed instruction. (Count)
system.cpu_cluster.cpus.commitStats0.committedInstType::SimdSqrt            0      0.00%     64.34% # Class of committed instruction. (Count)
system.cpu_cluster.cpus.commitStats0.committedInstType::SimdFloatAdd            0      0.00%     64.34% # Class of committed instruction. (Count)
system.cpu_cluster.cpus.commitStats0.committedInstType::SimdFloatAlu            0      0.00%     64.34% # Class of committed instruction. (Count)
system.cpu_cluster.cpus.commitStats0.committedInstType::SimdFloatCmp            0      0.00%     64.34% # Class of committed instruction. (Count)
system.cpu_cluster.cpus.commitStats0.committedInstType::SimdFloatCvt            0      0.00%     64.34% # Class of committed instruction. (Count)
system.cpu_cluster.cpus.commitStats0.committedInstType::SimdFloatDiv            0      0.00%     64.34% # Class of committed instruction. (Count)
system.cpu_cluster.cpus.commitStats0.committedInstType::SimdFloatMisc            0      0.00%     64.34% # Class of committed instruction. (Count)
system.cpu_cluster.cpus.commitStats0.committedInstType::SimdFloatMult            0      0.00%     64.34% # Class of committed instruction. (Count)
system.cpu_cluster.cpus.commitStats0.committedInstType::SimdFloatMultAcc            0      0.00%     64.34% # Class of committed instruction. (Count)
system.cpu_cluster.cpus.commitStats0.committedInstType::SimdFloatMatMultAcc            0      0.00%     64.34% # Class of committed instruction. (Count)
system.cpu_cluster.cpus.commitStats0.committedInstType::SimdFloatSqrt            0      0.00%     64.34% # Class of committed instruction. (Count)
system.cpu_cluster.cpus.commitStats0.committedInstType::SimdReduceAdd            0      0.00%     64.34% # Class of committed instruction. (Count)
system.cpu_cluster.cpus.commitStats0.committedInstType::SimdReduceAlu            0      0.00%     64.34% # Class of committed instruction. (Count)
system.cpu_cluster.cpus.commitStats0.committedInstType::SimdReduceCmp            0      0.00%     64.34% # Class of committed instruction. (Count)
system.cpu_cluster.cpus.commitStats0.committedInstType::SimdFloatReduceAdd            0      0.00%     64.34% # Class of committed instruction. (Count)
system.cpu_cluster.cpus.commitStats0.committedInstType::SimdFloatReduceCmp            0      0.00%     64.34% # Class of committed instruction. (Count)
system.cpu_cluster.cpus.commitStats0.committedInstType::SimdAes            0      0.00%     64.34% # Class of committed instruction. (Count)
system.cpu_cluster.cpus.commitStats0.committedInstType::SimdAesMix            0      0.00%     64.34% # Class of committed instruction. (Count)
system.cpu_cluster.cpus.commitStats0.committedInstType::SimdSha1Hash            0      0.00%     64.34% # Class of committed instruction. (Count)
system.cpu_cluster.cpus.commitStats0.committedInstType::SimdSha1Hash2            0      0.00%     64.34% # Class of committed instruction. (Count)
system.cpu_cluster.cpus.commitStats0.committedInstType::SimdSha256Hash            0      0.00%     64.34% # Class of committed instruction. (Count)
system.cpu_cluster.cpus.commitStats0.committedInstType::SimdSha256Hash2            0      0.00%     64.34% # Class of committed instruction. (Count)
system.cpu_cluster.cpus.commitStats0.committedInstType::SimdShaSigma2            0      0.00%     64.34% # Class of committed instruction. (Count)
system.cpu_cluster.cpus.commitStats0.committedInstType::SimdShaSigma3            0      0.00%     64.34% # Class of committed instruction. (Count)
system.cpu_cluster.cpus.commitStats0.committedInstType::SimdPredAlu            0      0.00%     64.34% # Class of committed instruction. (Count)
system.cpu_cluster.cpus.commitStats0.committedInstType::Matrix            0      0.00%     64.34% # Class of committed instruction. (Count)
system.cpu_cluster.cpus.commitStats0.committedInstType::MatrixMov            0      0.00%     64.34% # Class of committed instruction. (Count)
system.cpu_cluster.cpus.commitStats0.committedInstType::MatrixOP            0      0.00%     64.34% # Class of committed instruction. (Count)
system.cpu_cluster.cpus.commitStats0.committedInstType::MemRead     86436366     23.04%     87.38% # Class of committed instruction. (Count)
system.cpu_cluster.cpus.commitStats0.committedInstType::MemWrite     47336737     12.62%    100.00% # Class of committed instruction. (Count)
system.cpu_cluster.cpus.commitStats0.committedInstType::FloatMemRead            0      0.00%    100.00% # Class of committed instruction. (Count)
system.cpu_cluster.cpus.commitStats0.committedInstType::FloatMemWrite            0      0.00%    100.00% # Class of committed instruction. (Count)
system.cpu_cluster.cpus.commitStats0.committedInstType::IprAccess            0      0.00%    100.00% # Class of committed instruction. (Count)
system.cpu_cluster.cpus.commitStats0.committedInstType::InstPrefetch            0      0.00%    100.00% # Class of committed instruction. (Count)
system.cpu_cluster.cpus.commitStats0.committedInstType::SimdUnitStrideLoad            0      0.00%    100.00% # Class of committed instruction. (Count)
system.cpu_cluster.cpus.commitStats0.committedInstType::SimdUnitStrideStore            0      0.00%    100.00% # Class of committed instruction. (Count)
system.cpu_cluster.cpus.commitStats0.committedInstType::SimdUnitStrideMaskLoad            0      0.00%    100.00% # Class of committed instruction. (Count)
system.cpu_cluster.cpus.commitStats0.committedInstType::SimdUnitStrideMaskStore            0      0.00%    100.00% # Class of committed instruction. (Count)
system.cpu_cluster.cpus.commitStats0.committedInstType::SimdStridedLoad            0      0.00%    100.00% # Class of committed instruction. (Count)
system.cpu_cluster.cpus.commitStats0.committedInstType::SimdStridedStore            0      0.00%    100.00% # Class of committed instruction. (Count)
system.cpu_cluster.cpus.commitStats0.committedInstType::SimdIndexedLoad            0      0.00%    100.00% # Class of committed instruction. (Count)
system.cpu_cluster.cpus.commitStats0.committedInstType::SimdIndexedStore            0      0.00%    100.00% # Class of committed instruction. (Count)
system.cpu_cluster.cpus.commitStats0.committedInstType::SimdWholeRegisterLoad            0      0.00%    100.00% # Class of committed instruction. (Count)
system.cpu_cluster.cpus.commitStats0.committedInstType::SimdWholeRegisterStore            0      0.00%    100.00% # Class of committed instruction. (Count)
system.cpu_cluster.cpus.commitStats0.committedInstType::SimdUnitStrideFaultOnlyFirstLoad            0      0.00%    100.00% # Class of committed instruction. (Count)
system.cpu_cluster.cpus.commitStats0.committedInstType::SimdUnitStrideSegmentedLoad            0      0.00%    100.00% # Class of committed instruction. (Count)
[...]
system.mem_ctrls.dram.perBankWrBursts::31          453                       # Per bank write bursts (Count)
system.mem_ctrls.dram.totQLat               860925089                       # Total ticks spent queuing (Tick)
system.mem_ctrls.dram.totBusLat              38765376                       # Total ticks spent in databus transfers (Tick)
system.mem_ctrls.dram.totMemAccLat         1122948590                       # Total ticks spent from burst creation until serviced by the DRAM (Tick)
system.mem_ctrls.dram.avgQLat                55432.69                       # Average queueing delay per DRAM burst ((Tick/Count))
system.mem_ctrls.dram.avgBusLat               2496.00                       # Average bus latency per DRAM burst ((Tick/Count))
system.mem_ctrls.dram.avgMemAccLat           72303.69                       # Average memory access latency per DRAM burst ((Tick/Count))
system.mem_ctrls.dram.readRowHits                2460                       # Number of row buffer hits during reads (Count)
system.mem_ctrls.dram.writeRowHits               1535                       # Number of row buffer hits during writes (Count)
system.mem_ctrls.dram.readRowHitRate            15.84                       # Row buffer hit rate for reads (Ratio)
system.mem_ctrls.dram.writeRowHitRate           11.87                       # Row buffer hit rate for writes (Ratio)
system.mem_ctrls.dram.bytesPerActivate::samples        24463                       # Bytes accessed per row activation (Byte)
system.mem_ctrls.dram.bytesPerActivate::mean    74.451703                       # Bytes accessed per row activation (Byte)
system.mem_ctrls.dram.bytesPerActivate::gmean    69.821284                       # Bytes accessed per row activation (Byte)
system.mem_ctrls.dram.bytesPerActivate::stdev    40.921043                       # Bytes accessed per row activation (Byte)
system.mem_ctrls.dram.bytesPerActivate::64-127        22190     90.71%     90.71% # Bytes accessed per row activation (Byte)
system.mem_ctrls.dram.bytesPerActivate::128-191         1450      5.93%     96.64% # Bytes accessed per row activation (Byte)
system.mem_ctrls.dram.bytesPerActivate::192-255          366      1.50%     98.13% # Bytes accessed per row activation (Byte)
system.mem_ctrls.dram.bytesPerActivate::256-319          200      0.82%     98.95% # Bytes accessed per row activation (Byte)
system.mem_ctrls.dram.bytesPerActivate::320-383          135      0.55%     99.50% # Bytes accessed per row activation (Byte)
system.mem_ctrls.dram.bytesPerActivate::384-447           73      0.30%     99.80% # Bytes accessed per row activation (Byte)
system.mem_ctrls.dram.bytesPerActivate::448-511           38      0.16%     99.96% # Bytes accessed per row activation (Byte)
system.mem_ctrls.dram.bytesPerActivate::512-575            9      0.04%     99.99% # Bytes accessed per row activation (Byte)
system.mem_ctrls.dram.bytesPerActivate::576-639            1      0.00%    100.00% # Bytes accessed per row activation (Byte)
system.mem_ctrls.dram.bytesPerActivate::640-703            1      0.00%    100.00% # Bytes accessed per row activation (Byte)
system.mem_ctrls.dram.bytesPerActivate::total        24463                       # Bytes accessed per row activation (Byte)
system.mem_ctrls.dram.dramBytesRead            993984                       # Total bytes read (Byte)
system.mem_ctrls.dram.dramBytesWritten         827328                       # Total bytes written (Byte)
system.mem_ctrls.dram.avgRdBW             1080.184917                       # Average DRAM read bandwidth in MiBytes/s ((Byte/Second))
system.mem_ctrls.dram.avgWrBW              899.076068                       # Average DRAM write bandwidth in MiBytes/s ((Byte/Second))
system.mem_ctrls.dram.peakBW                 25641.00                       # Theoretical peak bandwidth in MiByte/s ((Byte/Second))
system.mem_ctrls.dram.busUtil                    7.72                       # Data bus utilization in percentage (Ratio)
system.mem_ctrls.dram.busUtilRead                4.21                       # Data bus utilization in percentage for reads (Ratio)
system.mem_ctrls.dram.busUtilWrite               3.51                       # Data bus utilization in percentage for writes (Ratio)
system.mem_ctrls.dram.pageHitRate               14.04                       # Row buffer hit rate, read and write combined (Ratio)
system.mem_ctrls.dram.power_state.pwrStateResidencyTicks::UNDEFINED    920198000                       # Cumulative time (in ticks) in various power states (Tick)
system.mem_ctrls.dram.rank0.actEnergy    -69180581.184000                       # Energy for activate commands per rank (pJ) (Joule)
system.mem_ctrls.dram.rank0.preEnergy    46344272.832000                       # Energy for precharge commands per rank (pJ) (Joule)
system.mem_ctrls.dram.rank0.readEnergy   66180249.907200                       # Energy for read commands per rank (pJ) (Joule)
system.mem_ctrls.dram.rank0.writeEnergy  47843716.377600                       # Energy for write commands per rank (pJ) (Joule)
system.mem_ctrls.dram.rank0.refreshEnergy 41550908.256000                       # Energy for refresh commands per rank (pJ) (Joule)
system.mem_ctrls.dram.rank0.actBackEnergy 355348632.038400                       # Energy for active background per rank (pJ) (Joule)
system.mem_ctrls.dram.rank0.preBackEnergy 142270204.876800                       # Energy for precharge background per rank (pJ) (Joule)
system.mem_ctrls.dram.rank0.actPowerDownEnergy            0                       # Energy for active power-down per rank (pJ) (Joule)
system.mem_ctrls.dram.rank0.prePowerDownEnergy            0                       # Energy for precharge power-down per rank (pJ) (Joule)
system.mem_ctrls.dram.rank0.selfRefreshEnergy            0                       # Energy for self refresh per rank (pJ) (Joule)
system.mem_ctrls.dram.rank0.totalEnergy  630357403.104000                       # Total energy per rank (pJ) (Joule)
system.mem_ctrls.dram.rank0.averagePower   685.023661                       # Core power per rank (mW) (Watt)
system.mem_ctrls.dram.rank0.totalIdleTime            0                       # Total Idle time Per DRAM Rank (Tick)
system.mem_ctrls.dram.rank0.pwrStateTime::IDLE    216184911                       # Time in different power states (Tick)
system.mem_ctrls.dram.rank0.pwrStateTime::REF     69915000                       # Time in different power states (Tick)
system.mem_ctrls.dram.rank0.pwrStateTime::SREF            0                       # Time in different power states (Tick)
system.mem_ctrls.dram.rank0.pwrStateTime::PRE_PDN            0                       # Time in different power states (Tick)
system.mem_ctrls.dram.rank0.pwrStateTime::ACT    634098089                       # Time in different power states (Tick)
system.mem_ctrls.dram.rank0.pwrStateTime::ACT_PDN            0                       # Time in different power states (Tick)
system.mem_ctrls.power_state.pwrStateResidencyTicks::UNDEFINED    920198000                       # Cumulative time (in ticks) in various power states (Tick)
system.membus.transDist::ReadReq                    7                       # Transaction distribution (Count)
system.membus.transDist::ReadResp               12164                       # Transaction distribution (Count)
system.membus.transDist::WritebackDirty         12932                       # Transaction distribution (Count)
system.membus.transDist::CleanEvict             10097                       # Transaction distribution (Count)
system.membus.transDist::UpgradeReq                38                       # Transaction distribution (Count)
system.membus.transDist::SCUpgradeReq               2                       # Transaction distribution (Count)
system.membus.transDist::ReadExReq               3423                       # Transaction distribution (Count)
system.membus.transDist::ReadExResp              3423                       # Transaction distribution (Count)
system.membus.transDist::ReadCleanReq           12157                       # Transaction distribution (Count)
system.membus.transDist::InvalidateReq           7363                       # Transaction distribution (Count)
system.membus.pktCount_system.cpu_cluster.l2.mem_side_port::system.mem_ctrls.port        61592                       # Packet count per connected requestor and responder (Count)
system.membus.pktCount_system.cpu_cluster.l2.mem_side_port::system.iobridge.cpu_side_port           14                       # Packet count per connected requestor and responder (Count)
system.membus.pktCount_system.cpu_cluster.l2.mem_side_port::total        61606                       # Packet count per connected requestor and responder (Count)
system.membus.pktCount::total                   61606                       # Packet count per connected requestor and responder (Count)
system.membus.pktSize_system.cpu_cluster.l2.mem_side_port::system.mem_ctrls.port      1824768                       # Cumulative packet size per connected requestor and responder (Byte)
system.membus.pktSize_system.cpu_cluster.l2.mem_side_port::system.iobridge.cpu_side_port           28                       # Cumulative packet size per connected requestor and responder (Byte)
system.membus.pktSize_system.cpu_cluster.l2.mem_side_port::total      1824796                       # Cumulative packet size per connected requestor and responder (Byte)
system.membus.pktSize::total                  1824796                       # Cumulative packet size per connected requestor and responder (Byte)
system.membus.snoops                                0                       # Total snoops (Count)
system.membus.snoopTraffic                          0                       # Total snoop traffic (Byte)
system.membus.snoopFanout::samples              22990                       # Request fanout histogram (Count)
system.membus.snoopFanout::mean                     0                       # Request fanout histogram (Count)
system.membus.snoopFanout::stdev                    0                       # Request fanout histogram (Count)
system.membus.snoopFanout::underflows               0      0.00%      0.00% # Request fanout histogram (Count)
system.membus.snoopFanout::0                    22990    100.00%    100.00% # Request fanout histogram (Count)
system.membus.snoopFanout::1                        0      0.00%    100.00% # Request fanout histogram (Count)
system.membus.snoopFanout::2                        0      0.00%    100.00% # Request fanout histogram (Count)
system.membus.snoopFanout::overflows                0      0.00%    100.00% # Request fanout histogram (Count)
system.membus.snoopFanout::min_value                0                       # Request fanout histogram (Count)
system.membus.snoopFanout::max_value                0                       # Request fanout histogram (Count)
system.membus.snoopFanout::total                22990                       # Request fanout histogram (Count)
system.membus.badaddr_responder.power_state.pwrStateResidencyTicks::UNDEFINED    920198000                       # Cumulative time (in ticks) in various power states (Tick)
system.membus.power_state.pwrStateResidencyTicks::UNDEFINED    920198000                       # Cumulative time (in ticks) in various power states (Tick)
system.membus.reqLayer0.occupancy           103504307                       # Layer occupancy (ticks) (Tick)
system.membus.reqLayer0.utilization               0.1                       # Layer utilization (Ratio)
system.membus.reqLayer1.occupancy                9000                       # Layer occupancy (ticks) (Tick)
system.membus.reqLayer1.utilization               0.0                       # Layer utilization (Ratio)
system.membus.respLayer2.occupancy           85215755                       # Layer occupancy (ticks) (Tick)
system.membus.respLayer2.utilization              0.1                       # Layer utilization (Ratio)
system.membus.snoop_filter.totRequests          46018                       # Total number of requests made to the snoop filter. (Count)
system.membus.snoop_filter.hitSingleRequests        23077                       # Number of requests hitting in the snoop filter with a single holder of the requested data. (Count)
system.membus.snoop_filter.hitMultiRequests            0                       # Number of requests hitting in the snoop filter with multiple (>1) holders of the requested data. (Count)
system.membus.snoop_filter.totSnoops                0                       # Total number of snoops made to the snoop filter. (Count)
system.membus.snoop_filter.hitSingleSnoops            0                       # Number of snoops hitting in the snoop filter with a single holder of the requested data. (Count)
system.membus.snoop_filter.hitMultiSnoops            0                       # Number of snoops hitting in the snoop filter with multiple (>1) holders of the requested data. (Count)
system.pci_devices.power_state.pwrStateResidencyTicks::UNDEFINED    920198000                       # Cumulative time (in ticks) in various power states (Tick)
system.realview.bootmem.power_state.pwrStateResidencyTicks::UNDEFINED    920198000                       # Cumulative time (in ticks) in various power states (Tick)
system.realview.clock24MHz.clock                41667                       # Clock period in ticks (Tick)
system.realview.clock32KHz.clock             31250000                       # Clock period in ticks (Tick)
system.realview.dcc.osc_cpu.clock               16667                       # Clock period in ticks (Tick)
system.realview.dcc.osc_ddr.clock               25000                       # Clock period in ticks (Tick)
system.realview.dcc.osc_hsbm.clock              25000                       # Clock period in ticks (Tick)
system.realview.dcc.osc_pxl.clock               42105                       # Clock period in ticks (Tick)
system.realview.dcc.osc_smb.clock               20000                       # Clock period in ticks (Tick)
system.realview.dcc.osc_sys.clock               16667                       # Clock period in ticks (Tick)
system.realview.el2_watchdog.power_state.pwrStateResidencyTicks::UNDEFINED    920198000                       # Cumulative time (in ticks) in various power states (Tick)
system.realview.energy_ctrl.power_state.pwrStateResidencyTicks::UNDEFINED    920198000                       # Cumulative time (in ticks) in various power states (Tick)
system.realview.flash0.power_state.pwrStateResidencyTicks::UNDEFINED    920198000                       # Cumulative time (in ticks) in various power states (Tick)
system.realview.flash1.power_state.pwrStateResidencyTicks::UNDEFINED    920198000                       # Cumulative time (in ticks) in various power states (Tick)
system.realview.generic_timer_mem.frames0.power_state.pwrStateResidencyTicks::UNDEFINED    920198000                       # Cumulative time (in ticks) in various power states (Tick)
system.realview.generic_timer_mem.frames1.power_state.pwrStateResidencyTicks::UNDEFINED    920198000                       # Cumulative time (in ticks) in various power states (Tick)
system.realview.generic_timer_mem.power_state.pwrStateResidencyTicks::UNDEFINED    920198000                       # Cumulative time (in ticks) in various power states (Tick)
system.realview.gic.power_state.pwrStateResidencyTicks::UNDEFINED    920198000                       # Cumulative time (in ticks) in various power states (Tick)
system.realview.gicv2m.power_state.pwrStateResidencyTicks::UNDEFINED    920198000                       # Cumulative time (in ticks) in various power states (Tick)
system.realview.io_voltage.voltage           3.300000                       # Voltage in Volts (Volt)
system.realview.kmi0.power_state.pwrStateResidencyTicks::UNDEFINED    920198000                       # Cumulative time (in ticks) in various power states (Tick)
system.realview.kmi1.power_state.pwrStateResidencyTicks::UNDEFINED    920198000                       # Cumulative time (in ticks) in various power states (Tick)
system.realview.mcc.osc_clcd.clock              42105                       # Clock period in ticks (Tick)
system.realview.mcc.osc_mcc.clock               20000                       # Clock period in ticks (Tick)
system.realview.mcc.osc_peripheral.clock        41667                       # Clock period in ticks (Tick)
system.realview.mcc.osc_system_bus.clock        41667                       # Clock period in ticks (Tick)
system.realview.non_trusted_sram.power_state.pwrStateResidencyTicks::UNDEFINED    920198000                       # Cumulative time (in ticks) in various power states (Tick)
system.realview.pci_host.power_state.pwrStateResidencyTicks::UNDEFINED    920198000                       # Cumulative time (in ticks) in various power states (Tick)
system.realview.pwr_ctrl.power_state.pwrStateResidencyTicks::UNDEFINED    920198000                       # Cumulative time (in ticks) in various power states (Tick)
system.realview.realview_io.power_state.pwrStateResidencyTicks::UNDEFINED    920198000                       # Cumulative time (in ticks) in various power states (Tick)
system.realview.rtc.power_state.pwrStateResidencyTicks::UNDEFINED    920198000                       # Cumulative time (in ticks) in various power states (Tick)
system.realview.system_watchdog.power_state.pwrStateResidencyTicks::UNDEFINED    920198000                       # Cumulative time (in ticks) in various power states (Tick)
system.realview.trusted_dram.power_state.pwrStateResidencyTicks::UNDEFINED    920198000                       # Cumulative time (in ticks) in various power states (Tick)
system.realview.trusted_sram.power_state.pwrStateResidencyTicks::UNDEFINED    920198000                       # Cumulative time (in ticks) in various power states (Tick)
system.realview.trusted_watchdog.power_state.pwrStateResidencyTicks::UNDEFINED    920198000                       # Cumulative time (in ticks) in various power states (Tick)
system.realview.uart0.power_state.pwrStateResidencyTicks::UNDEFINED    920198000                       # Cumulative time (in ticks) in various power states (Tick)
system.realview.uart1.power_state.pwrStateResidencyTicks::UNDEFINED    920198000                       # Cumulative time (in ticks) in various power states (Tick)
system.realview.uart2.power_state.pwrStateResidencyTicks::UNDEFINED    920198000                       # Cumulative time (in ticks) in various power states (Tick)
system.realview.uart3.power_state.pwrStateResidencyTicks::UNDEFINED    920198000                       # Cumulative time (in ticks) in various power states (Tick)
system.realview.vgic.power_state.pwrStateResidencyTicks::UNDEFINED    920198000                       # Cumulative time (in ticks) in various power states (Tick)
system.realview.vio0.power_state.pwrStateResidencyTicks::UNDEFINED    920198000                       # Cumulative time (in ticks) in various power states (Tick)
system.realview.vio1.power_state.pwrStateResidencyTicks::UNDEFINED    920198000                       # Cumulative time (in ticks) in various power states (Tick)
system.realview.vram.power_state.pwrStateResidencyTicks::UNDEFINED    920198000                       # Cumulative time (in ticks) in various power states (Tick)
system.realview.watchdog.power_state.pwrStateResidencyTicks::UNDEFINED    920198000                       # Cumulative time (in ticks) in various power states (Tick)
system.voltage_domain.voltage                       1                       # Voltage in Volts (Volt)
system.workload.inst.arm                            0                       # number of arm instructions executed (Count)
system.workload.inst.quiesce                        8                       # number of quiesce instructions executed (Count)

---------- End Simulation Statistics   ----------
