
---------- Begin Simulation Statistics ----------
simSeconds                                   1.105043                       # Number of seconds simulated (Second)
simTicks                                 1105042655000                       # Number of ticks simulated (Tick)
finalTick                                1336744186750                       # Number of ticks from beginning of simulation (restored from checkpoints and never reset) (Tick)
simFreq                                  1000000000000                       # The number of ticks per simulated second ((Tick/Second))
hostSeconds                                   1930.75                       # Real time elapsed on the host (Second)
hostTickRate                                572337189                       # The number of ticks simulated per host second (ticks/s) ((Tick/Second))
hostMemory                                  407477168                       # Number of bytes of host memory used (Byte)
simInsts                                    173892035                       # Number of instructions simulated (Count)
simOps                                      176937390                       # Number of ops (including micro ops) simulated (Count)
hostInstRate                                    90064                       # Simulator instruction rate (inst/s) ((Count/Second))
hostOpRate                                      91642                       # Simulator op (including micro ops) rate (op/s) ((Count/Second))
system.clk_domain.clock                          1000                       # Clock period in ticks (Tick)
system.cpu_cluster.clk_domain.clock               250                       # Clock period in ticks (Tick)
system.cpu_cluster.cpus.numCycles          4420170600                       # Number of cpu cycles simulated (Cycle)
system.cpu_cluster.cpus.cpi                 25.415066                       # CPI: cycles per instruction (core level) ((Cycle/Count))
system.cpu_cluster.cpus.ipc                  0.039347                       # IPC: instructions per cycle (core level) ((Count/Cycle))
system.cpu_cluster.cpus.numWorkItemsStarted            0                       # Number of work items this cpu started (Count)
system.cpu_cluster.cpus.numWorkItemsCompleted            0                       # Number of work items this cpu completed (Count)
system.cpu_cluster.cpus.instsAdded          177657550                       # Number of instructions added to the IQ (excludes non-spec) (Count)
system.cpu_cluster.cpus.nonSpecInstsAdded       105020                       # Number of non-speculative instructions added to the IQ (Count)
system.cpu_cluster.cpus.instsIssued         177665560                       # Number of instructions issued (Count)
system.cpu_cluster.cpus.squashedInstsIssued        60183                       # Number of squashed instructions issued (Count)
system.cpu_cluster.cpus.squashedInstsExamined       825180                       # Number of squashed instructions iterated over during squash; mainly for profiling (Count)
system.cpu_cluster.cpus.squashedOperandsExamined       525018                       # Number of squashed operands that are examined and possibly removed from graph (Count)
system.cpu_cluster.cpus.squashedNonSpecRemoved         2765                       # Number of squashed non-spec instructions that were removed (Count)
system.cpu_cluster.cpus.numIssuedDist::samples   4414217961                       # Number of insts issued each cycle (Count)
system.cpu_cluster.cpus.numIssuedDist::mean     0.040248                       # Number of insts issued each cycle (Count)
system.cpu_cluster.cpus.numIssuedDist::stdev     0.232550                       # Number of insts issued each cycle (Count)
system.cpu_cluster.cpus.numIssuedDist::underflows            0      0.00%      0.00% # Number of insts issued each cycle (Count)
system.cpu_cluster.cpus.numIssuedDist::0   4265730250     96.64%     96.64% # Number of insts issued each cycle (Count)
system.cpu_cluster.cpus.numIssuedDist::1    124101864      2.81%     99.45% # Number of insts issued each cycle (Count)
system.cpu_cluster.cpus.numIssuedDist::2     19725434      0.45%     99.89% # Number of insts issued each cycle (Count)
system.cpu_cluster.cpus.numIssuedDist::3      4528838      0.10%    100.00% # Number of insts issued each cycle (Count)
system.cpu_cluster.cpus.numIssuedDist::4       131561      0.00%    100.00% # Number of insts issued each cycle (Count)
system.cpu_cluster.cpus.numIssuedDist::5           14      0.00%    100.00% # Number of insts issued each cycle (Count)
system.cpu_cluster.cpus.numIssuedDist::6            0      0.00%    100.00% # Number of insts issued each cycle (Count)
system.cpu_cluster.cpus.numIssuedDist::7            0      0.00%    100.00% # Number of insts issued each cycle (Count)
system.cpu_cluster.cpus.numIssuedDist::8            0      0.00%    100.00% # Number of insts issued each cycle (Count)
system.cpu_cluster.cpus.numIssuedDist::overflows            0      0.00%    100.00% # Number of insts issued each cycle (Count)
system.cpu_cluster.cpus.numIssuedDist::min_value            0                       # Number of insts issued each cycle (Count)
system.cpu_cluster.cpus.numIssuedDist::max_value            5                       # Number of insts issued each cycle (Count)
system.cpu_cluster.cpus.numIssuedDist::total   4414217961                       # Number of insts issued each cycle (Count)
system.cpu_cluster.cpus.statFuBusy::No_OpClass            0      0.00%      0.00% # attempts to use FU when none available (Count)
system.cpu_cluster.cpus.statFuBusy::IntAlu      3251431     61.50%     61.50% # attempts to use FU when none available (Count)
system.cpu_cluster.cpus.statFuBusy::IntMult          659      0.01%     61.52% # attempts to use FU when none available (Count)
system.cpu_cluster.cpus.statFuBusy::IntDiv         9789      0.19%     61.70% # attempts to use FU when none available (Count)
system.cpu_cluster.cpus.statFuBusy::FloatAdd            0      0.00%     61.70% # attempts to use FU when none available (Count)
system.cpu_cluster.cpus.statFuBusy::FloatCmp            0      0.00%     61.70% # attempts to use FU when none available (Count)
system.cpu_cluster.cpus.statFuBusy::FloatCvt            0      0.00%     61.70% # attempts to use FU when none available (Count)
system.cpu_cluster.cpus.statFuBusy::FloatMult            0      0.00%     61.70% # attempts to use FU when none available (Count)
system.cpu_cluster.cpus.statFuBusy::FloatMultAcc            0      0.00%     61.70% # attempts to use FU when none available (Count)
system.cpu_cluster.cpus.statFuBusy::FloatDiv            0      0.00%     61.70% # attempts to use FU when none available (Count)
system.cpu_cluster.cpus.statFuBusy::FloatMisc            0      0.00%     61.70% # attempts to use FU when none available (Count)
system.cpu_cluster.cpus.statFuBusy::FloatSqrt            0      0.00%     61.70% # attempts to use FU when none available (Count)
system.cpu_cluster.cpus.statFuBusy::SimdAdd            0      0.00%     61.70% # attempts to use FU when none available (Count)
system.cpu_cluster.cpus.statFuBusy::SimdAddAcc            0      0.00%     61.70% # attempts to use FU when none available (Count)
system.cpu_cluster.cpus.statFuBusy::SimdAlu            2      0.00%     61.70% # attempts to use FU when none available (Count)
system.cpu_cluster.cpus.statFuBusy::SimdCmp            0      0.00%     61.70% # attempts to use FU when none available (Count)
system.cpu_cluster.cpus.statFuBusy::SimdCvt            0      0.00%     61.70% # attempts to use FU when none available (Count)
system.cpu_cluster.cpus.statFuBusy::SimdMisc            0      0.00%     61.70% # attempts to use FU when none available (Count)
system.cpu_cluster.cpus.statFuBusy::SimdMult            0      0.00%     61.70% # attempts to use FU when none available (Count)
system.cpu_cluster.cpus.statFuBusy::SimdMultAcc            0      0.00%     61.70% # attempts to use FU when none available (Count)
system.cpu_cluster.cpus.statFuBusy::SimdMatMultAcc            0      0.00%     61.70% # attempts to use FU when none available (Count)
system.cpu_cluster.cpus.statFuBusy::SimdShift            0      0.00%     61.70% # attempts to use FU when none available (Count)
system.cpu_cluster.cpus.statFuBusy::SimdShiftAcc            0      0.00%     61.70% # attempts to use FU when none available (Count)
system.cpu_cluster.cpus.statFuBusy::SimdDiv            0      0.00%     61.70% # attempts to use FU when none available (Count)
system.cpu_cluster.cpus.statFuBusy::SimdSqrt            0      0.00%     61.70% # attempts to use FU when none available (Count)
system.cpu_cluster.cpus.statFuBusy::SimdFloatAdd            0      0.00%     61.70% # attempts to use FU when none available (Count)
system.cpu_cluster.cpus.statFuBusy::SimdFloatAlu            0      0.00%     61.70% # attempts to use FU when none available (Count)
system.cpu_cluster.cpus.statFuBusy::SimdFloatCmp            0      0.00%     61.70% # attempts to use FU when none available (Count)
system.cpu_cluster.cpus.statFuBusy::SimdFloatCvt            0      0.00%     61.70% # attempts to use FU when none available (Count)
system.cpu_cluster.cpus.statFuBusy::SimdFloatDiv            0      0.00%     61.70% # attempts to use FU when none available (Count)
system.cpu_cluster.cpus.statFuBusy::SimdFloatMisc            0      0.00%     61.70% # attempts to use FU when none available (Count)
system.cpu_cluster.cpus.statFuBusy::SimdFloatMult            0      0.00%     61.70% # attempts to use FU when none available (Count)
system.cpu_cluster.cpus.statFuBusy::SimdFloatMultAcc            0      0.00%     61.70% # attempts to use FU when none available (Count)
system.cpu_cluster.cpus.statFuBusy::SimdFloatMatMultAcc            0      0.00%     61.70% # attempts to use FU when none available (Count)
system.cpu_cluster.cpus.statFuBusy::SimdFloatSqrt            0      0.00%     61.70% # attempts to use FU when none available (Count)
system.cpu_cluster.cpus.statFuBusy::SimdReduceAdd            0      0.00%     61.70% # attempts to use FU when none available (Count)
system.cpu_cluster.cpus.statFuBusy::SimdReduceAlu            0      0.00%     61.70% # attempts to use FU when none available (Count)
system.cpu_cluster.cpus.statFuBusy::SimdReduceCmp            0      0.00%     61.70% # attempts to use FU when none available (Count)
system.cpu_cluster.cpus.statFuBusy::SimdFloatReduceAdd            0      0.00%     61.70% # attempts to use FU when none available (Count)
system.cpu_cluster.cpus.statFuBusy::SimdFloatReduceCmp            0      0.00%     61.70% # attempts to use FU when none available (Count)
system.cpu_cluster.cpus.statFuBusy::SimdAes            0      0.00%     61.70% # attempts to use FU when none available (Count)
system.cpu_cluster.cpus.statFuBusy::SimdAesMix            0      0.00%     61.70% # attempts to use FU when none available (Count)
system.cpu_cluster.cpus.statFuBusy::SimdSha1Hash            0      0.00%     61.70% # attempts to use FU when none available (Count)
system.cpu_cluster.cpus.statFuBusy::SimdSha1Hash2            0      0.00%     61.70% # attempts to use FU when none available (Count)
system.cpu_cluster.cpus.statFuBusy::SimdSha256Hash            0      0.00%     61.70% # attempts to use FU when none available (Count)
system.cpu_cluster.cpus.statFuBusy::SimdSha256Hash2            0      0.00%     61.70% # attempts to use FU when none available (Count)
system.cpu_cluster.cpus.statFuBusy::SimdShaSigma2            0      0.00%     61.70% # attempts to use FU when none available (Count)
system.cpu_cluster.cpus.statFuBusy::SimdShaSigma3            0      0.00%     61.70% # attempts to use FU when none available (Count)
system.cpu_cluster.cpus.statFuBusy::SimdPredAlu            0      0.00%     61.70% # attempts to use FU when none available (Count)
system.cpu_cluster.cpus.statFuBusy::Matrix            0      0.00%     61.70% # attempts to use FU when none available (Count)
system.cpu_cluster.cpus.statFuBusy::MatrixMov            0      0.00%     61.70% # attempts to use FU when none available (Count)
system.cpu_cluster.cpus.statFuBusy::MatrixOP            0      0.00%     61.70% # attempts to use FU when none available (Count)
system.cpu_cluster.cpus.statFuBusy::MemRead       868370     16.43%     78.13% # attempts to use FU when none available (Count)
system.cpu_cluster.cpus.statFuBusy::MemWrite      1156211     21.87%    100.00% # attempts to use FU when none available (Count)
system.cpu_cluster.cpus.statFuBusy::FloatMemRead            0      0.00%    100.00% # attempts to use FU when none available (Count)
system.cpu_cluster.cpus.statFuBusy::FloatMemWrite            0      0.00%    100.00% # attempts to use FU when none available (Count)
system.cpu_cluster.cpus.statFuBusy::IprAccess            0      0.00%    100.00% # attempts to use FU when none available (Count)
system.cpu_cluster.cpus.statFuBusy::InstPrefetch            0      0.00%    100.00% # attempts to use FU when none available (Count)
system.cpu_cluster.cpus.statFuBusy::SimdUnitStrideLoad            0      0.00%    100.00% # attempts to use FU when none available (Count)
system.cpu_cluster.cpus.statFuBusy::SimdUnitStrideStore            0      0.00%    100.00% # attempts to use FU when none available (Count)
system.cpu_cluster.cpus.statFuBusy::SimdUnitStrideMaskLoad            0      0.00%    100.00% # attempts to use FU when none available (Count)
system.cpu_cluster.cpus.statFuBusy::SimdUnitStrideMaskStore            0      0.00%    100.00% # attempts to use FU when none available (Count)
system.cpu_cluster.cpus.statFuBusy::SimdStridedLoad            0      0.00%    100.00% # attempts to use FU when none available (Count)
system.cpu_cluster.cpus.statFuBusy::SimdStridedStore            0      0.00%    100.00% # attempts to use FU when none available (Count)
system.cpu_cluster.cpus.statFuBusy::SimdIndexedLoad            0      0.00%    100.00% # attempts to use FU when none available (Count)
system.cpu_cluster.cpus.statFuBusy::SimdIndexedStore            0      0.00%    100.00% # attempts to use FU when none available (Count)
system.cpu_cluster.cpus.statFuBusy::SimdWholeRegisterLoad            0      0.00%    100.00% # attempts to use FU when none available (Count)
system.cpu_cluster.cpus.statFuBusy::SimdWholeRegisterStore            0      0.00%    100.00% # attempts to use FU when none available (Count)
system.cpu_cluster.cpus.statFuBusy::SimdUnitStrideFaultOnlyFirstLoad            0      0.00%    100.00% # attempts to use FU when none available (Count)
system.cpu_cluster.cpus.statFuBusy::SimdUnitStrideSegmentedLoad            0      0.00%    100.00% # attempts to use FU when none available (Count)
system.cpu_cluster.cpus.statFuBusy::SimdUnitStrideSegmentedStore            0      0.00%    100.00% # attempts to use FU when none available (Count)
system.cpu_cluster.cpus.statFuBusy::SimdExt            0      0.00%    100.00% # attempts to use FU when none available (Count)
system.cpu_cluster.cpus.statFuBusy::SimdFloatExt            0      0.00%    100.00% # attempts to use FU when none available (Count)
system.cpu_cluster.cpus.statFuBusy::SimdConfig            0      0.00%    100.00% # attempts to use FU when none available (Count)
system.cpu_cluster.cpus.statIssuedInstType_0::No_OpClass          652      0.00%      0.00% # Number of instructions issued per FU type, per thread (Count)
system.cpu_cluster.cpus.statIssuedInstType_0::IntAlu     99177292     55.82%     55.82% # Number of instructions issued per FU type, per thread (Count)
system.cpu_cluster.cpus.statIssuedInstType_0::IntMult        24380      0.01%     55.84% # Number of instructions issued per FU type, per thread (Count)
system.cpu_cluster.cpus.statIssuedInstType_0::IntDiv         1590      0.00%     55.84% # Number of instructions issued per FU type, per thread (Count)
system.cpu_cluster.cpus.statIssuedInstType_0::FloatAdd            0      0.00%     55.84% # Number of instructions issued per FU type, per thread (Count)
system.cpu_cluster.cpus.statIssuedInstType_0::FloatCmp            9      0.00%     55.84% # Number of instructions issued per FU type, per thread (Count)
system.cpu_cluster.cpus.statIssuedInstType_0::FloatCvt           15      0.00%     55.84% # Number of instructions issued per FU type, per thread (Count)
system.cpu_cluster.cpus.statIssuedInstType_0::FloatMult            6      0.00%     55.84% # Number of instructions issued per FU type, per thread (Count)
system.cpu_cluster.cpus.statIssuedInstType_0::FloatMultAcc            0      0.00%     55.84% # Number of instructions issued per FU type, per thread (Count)
system.cpu_cluster.cpus.statIssuedInstType_0::FloatDiv            5      0.00%     55.84% # Number of instructions issued per FU type, per thread (Count)
system.cpu_cluster.cpus.statIssuedInstType_0::FloatMisc            8      0.00%     55.84% # Number of instructions issued per FU type, per thread (Count)
system.cpu_cluster.cpus.statIssuedInstType_0::FloatSqrt            0      0.00%     55.84% # Number of instructions issued per FU type, per thread (Count)
system.cpu_cluster.cpus.statIssuedInstType_0::SimdAdd           43      0.00%     55.84% # Number of instructions issued per FU type, per thread (Count)
system.cpu_cluster.cpus.statIssuedInstType_0::SimdAddAcc            0      0.00%     55.84% # Number of instructions issued per FU type, per thread (Count)
system.cpu_cluster.cpus.statIssuedInstType_0::SimdAlu           77      0.00%     55.84% # Number of instructions issued per FU type, per thread (Count)
system.cpu_cluster.cpus.statIssuedInstType_0::SimdCmp           56      0.00%     55.84% # Number of instructions issued per FU type, per thread (Count)
system.cpu_cluster.cpus.statIssuedInstType_0::SimdCvt            0      0.00%     55.84% # Number of instructions issued per FU type, per thread (Count)
system.cpu_cluster.cpus.statIssuedInstType_0::SimdMisc           68      0.00%     55.84% # Number of instructions issued per FU type, per thread (Count)
system.cpu_cluster.cpus.statIssuedInstType_0::SimdMult            0      0.00%     55.84% # Number of instructions issued per FU type, per thread (Count)
system.cpu_cluster.cpus.statIssuedInstType_0::SimdMultAcc            0      0.00%     55.84% # Number of instructions issued per FU type, per thread (Count)
system.cpu_cluster.cpus.statIssuedInstType_0::SimdMatMultAcc            0      0.00%     55.84% # Number of instructions issued per FU type, per thread (Count)
system.cpu_cluster.cpus.statIssuedInstType_0::SimdShift            0      0.00%     55.84% # Number of instructions issued per FU type, per thread (Count)
system.cpu_cluster.cpus.statIssuedInstType_0::SimdShiftAcc            0      0.00%     55.84% # Number of instructions issued per FU type, per thread (Count)
system.cpu_cluster.cpus.statIssuedInstType_0::SimdDiv            0      0.00%     55.84% # Number of instructions issued per FU type, per thread (Count)
system.cpu_cluster.cpus.statIssuedInstType_0::SimdSqrt            0      0.00%     55.84% # Number of instructions issued per FU type, per thread (Count)
system.cpu_cluster.cpus.statIssuedInstType_0::SimdFloatAdd            0      0.00%     55.84% # Number of instructions issued per FU type, per thread (Count)
system.cpu_cluster.cpus.statIssuedInstType_0::SimdFloatAlu            0      0.00%     55.84% # Number of instructions issued per FU type, per thread (Count)
system.cpu_cluster.cpus.statIssuedInstType_0::SimdFloatCmp            0      0.00%     55.84% # Number of instructions issued per FU type, per thread (Count)
system.cpu_cluster.cpus.statIssuedInstType_0::SimdFloatCvt            0      0.00%     55.84% # Number of instructions issued per FU type, per thread (Count)
system.cpu_cluster.cpus.statIssuedInstType_0::SimdFloatDiv            0      0.00%     55.84% # Number of instructions issued per FU type, per thread (Count)
system.cpu_cluster.cpus.statIssuedInstType_0::SimdFloatMisc            0      0.00%     55.84% # Number of instructions issued per FU type, per thread (Count)
system.cpu_cluster.cpus.statIssuedInstType_0::SimdFloatMult            0      0.00%     55.84% # Number of instructions issued per FU type, per thread (Count)
system.cpu_cluster.cpus.statIssuedInstType_0::SimdFloatMultAcc            0      0.00%     55.84% # Number of instructions issued per FU type, per thread (Count)
system.cpu_cluster.cpus.statIssuedInstType_0::SimdFloatMatMultAcc            0      0.00%     55.84% # Number of instructions issued per FU type, per thread (Count)
system.cpu_cluster.cpus.statIssuedInstType_0::SimdFloatSqrt            0      0.00%     55.84% # Number of instructions issued per FU type, per thread (Count)
system.cpu_cluster.cpus.statIssuedInstType_0::SimdReduceAdd            0      0.00%     55.84% # Number of instructions issued per FU type, per thread (Count)
system.cpu_cluster.cpus.statIssuedInstType_0::SimdReduceAlu            0      0.00%     55.84% # Number of instructions issued per FU type, per thread (Count)
system.cpu_cluster.cpus.statIssuedInstType_0::SimdReduceCmp            0      0.00%     55.84% # Number of instructions issued per FU type, per thread (Count)
system.cpu_cluster.cpus.statIssuedInstType_0::SimdFloatReduceAdd            0      0.00%     55.84% # Number of instructions issued per FU type, per thread (Count)
system.cpu_cluster.cpus.statIssuedInstType_0::SimdFloatReduceCmp            0      0.00%     55.84% # Number of instructions issued per FU type, per thread (Count)
system.cpu_cluster.cpus.statIssuedInstType_0::SimdAes            0      0.00%     55.84% # Number of instructions issued per FU type, per thread (Count)
system.cpu_cluster.cpus.statIssuedInstType_0::SimdAesMix            0      0.00%     55.84% # Number of instructions issued per FU type, per thread (Count)
system.cpu_cluster.cpus.statIssuedInstType_0::SimdSha1Hash            0      0.00%     55.84% # Number of instructions issued per FU type, per thread (Count)
system.cpu_cluster.cpus.statIssuedInstType_0::SimdSha1Hash2            0      0.00%     55.84% # Number of instructions issued per FU type, per thread (Count)
system.cpu_cluster.cpus.statIssuedInstType_0::SimdSha256Hash            0      0.00%     55.84% # Number of instructions issued per FU type, per thread (Count)
system.cpu_cluster.cpus.statIssuedInstType_0::SimdSha256Hash2            0      0.00%     55.84% # Number of instructions issued per FU type, per thread (Count)
system.cpu_cluster.cpus.statIssuedInstType_0::SimdShaSigma2            0      0.00%     55.84% # Number of instructions issued per FU type, per thread (Count)
system.cpu_cluster.cpus.statIssuedInstType_0::SimdShaSigma3            0      0.00%     55.84% # Number of instructions issued per FU type, per thread (Count)
system.cpu_cluster.cpus.statIssuedInstType_0::SimdPredAlu            0      0.00%     55.84% # Number of instructions issued per FU type, per thread (Count)
system.cpu_cluster.cpus.statIssuedInstType_0::Matrix            0      0.00%     55.84% # Number of instructions issued per FU type, per thread (Count)
system.cpu_cluster.cpus.statIssuedInstType_0::MatrixMov            0      0.00%     55.84% # Number of instructions issued per FU type, per thread (Count)
system.cpu_cluster.cpus.statIssuedInstType_0::MatrixOP            0      0.00%     55.84% # Number of instructions issued per FU type, per thread (Count)
system.cpu_cluster.cpus.statIssuedInstType_0::MemRead     70688627     39.79%     95.63% # Number of instructions issued per FU type, per thread (Count)
system.cpu_cluster.cpus.statIssuedInstType_0::MemWrite      7772732      4.37%    100.00% # Number of instructions issued per FU type, per thread (Count)
system.cpu_cluster.cpus.statIssuedInstType_0::FloatMemRead            0      0.00%    100.00% # Number of instructions issued per FU type, per thread (Count)
system.cpu_cluster.cpus.statIssuedInstType_0::FloatMemWrite            0      0.00%    100.00% # Number of instructions issued per FU type, per thread (Count)
system.cpu_cluster.cpus.statIssuedInstType_0::IprAccess            0      0.00%    100.00% # Number of instructions issued per FU type, per thread (Count)
system.cpu_cluster.cpus.statIssuedInstType_0::InstPrefetch            0      0.00%    100.00% # Number of instructions issued per FU type, per thread (Count)
system.cpu_cluster.cpus.statIssuedInstType_0::SimdUnitStrideLoad            0      0.00%    100.00% # Number of instructions issued per FU type, per thread (Count)
system.cpu_cluster.cpus.statIssuedInstType_0::SimdUnitStrideStore            0      0.00%    100.00% # Number of instructions issued per FU type, per thread (Count)
system.cpu_cluster.cpus.statIssuedInstType_0::SimdUnitStrideMaskLoad            0      0.00%    100.00% # Number of instructions issued per FU type, per thread (Count)
system.cpu_cluster.cpus.statIssuedInstType_0::SimdUnitStrideMaskStore            0      0.00%    100.00% # Number of instructions issued per FU type, per thread (Count)
system.cpu_cluster.cpus.statIssuedInstType_0::SimdStridedLoad            0      0.00%    100.00% # Number of instructions issued per FU type, per thread (Count)
system.cpu_cluster.cpus.statIssuedInstType_0::SimdStridedStore            0      0.00%    100.00% # Number of instructions issued per FU type, per thread (Count)
system.cpu_cluster.cpus.statIssuedInstType_0::SimdIndexedLoad            0      0.00%    100.00% # Number of instructions issued per FU type, per thread (Count)
system.cpu_cluster.cpus.statIssuedInstType_0::SimdIndexedStore            0      0.00%    100.00% # Number of instructions issued per FU type, per thread (Count)
system.cpu_cluster.cpus.statIssuedInstType_0::SimdWholeRegisterLoad            0      0.00%    100.00% # Number of instructions issued per FU type, per thread (Count)
system.cpu_cluster.cpus.statIssuedInstType_0::SimdWholeRegisterStore            0      0.00%    100.00% # Number of instructions issued per FU type, per thread (Count)
system.cpu_cluster.cpus.statIssuedInstType_0::SimdUnitStrideFaultOnlyFirstLoad            0      0.00%    100.00% # Number of instructions issued per FU type, per thread (Count)
system.cpu_cluster.cpus.statIssuedInstType_0::SimdUnitStrideSegmentedLoad            0      0.00%    100.00% # Number of instructions issued per FU type, per thread (Count)
system.cpu_cluster.cpus.statIssuedInstType_0::SimdUnitStrideSegmentedStore            0      0.00%    100.00% # Number of instructions issued per FU type, per thread (Count)
system.cpu_cluster.cpus.statIssuedInstType_0::SimdExt            0      0.00%    100.00% # Number of instructions issued per FU type, per thread (Count)
system.cpu_cluster.cpus.statIssuedInstType_0::SimdFloatExt            0      0.00%    100.00% # Number of instructions issued per FU type, per thread (Count)
system.cpu_cluster.cpus.statIssuedInstType_0::SimdConfig            0      0.00%    100.00% # Number of instructions issued per FU type, per thread (Count)
system.cpu_cluster.cpus.statIssuedInstType_0::total    177665560                       # Number of instructions issued per FU type, per thread (Count)
system.cpu_cluster.cpus.issueRate            0.040194                       # Inst issue rate ((Count/Cycle))
system.cpu_cluster.cpus.fuBusy                5286462                       # FU busy when requested (Count)
system.cpu_cluster.cpus.fuBusyRate           0.029755                       # FU busy rate (busy events/executed inst) ((Count/Count))
system.cpu_cluster.cpus.intInstQueueReads   4774890184                       # Number of integer instruction queue reads (Count)
system.cpu_cluster.cpus.intInstQueueWrites    178586782                       # Number of integer instruction queue writes (Count)
system.cpu_cluster.cpus.intInstQueueWakeupAccesses    177377190                       # Number of integer instruction queue wakeup accesses (Count)
system.cpu_cluster.cpus.fpInstQueueReads            0                       # Number of floating instruction queue reads (Count)
system.cpu_cluster.cpus.fpInstQueueWrites            0                       # Number of floating instruction queue writes (Count)
system.cpu_cluster.cpus.fpInstQueueWakeupAccesses            0                       # Number of floating instruction queue wakeup accesses (Count)
system.cpu_cluster.cpus.vecInstQueueReads         5542                       # Number of vector instruction queue reads (Count)
system.cpu_cluster.cpus.vecInstQueueWrites         2365                       # Number of vector instruction queue writes (Count)
system.cpu_cluster.cpus.vecInstQueueWakeupAccesses         2179                       # Number of vector instruction queue wakeup accesses (Count)
system.cpu_cluster.cpus.intAluAccesses      182948099                       # Number of integer alu accesses (Count)
system.cpu_cluster.cpus.fpAluAccesses               0                       # Number of floating point alu accesses (Count)
system.cpu_cluster.cpus.vecAluAccesses           3271                       # Number of vector alu accesses (Count)
system.cpu_cluster.cpus.numSquashedInsts        88611                       # Number of squashed instructions skipped in execute (Count)
system.cpu_cluster.cpus.numSwp                      0                       # Number of swp insts executed (Count)
system.cpu_cluster.cpus.timesIdled              29398                       # Number of times that the entire CPU went into an idle state and unscheduled itself (Count)
system.cpu_cluster.cpus.idleCycles            5952639                       # Total number of cycles that the CPU has spent unscheduled due to idling (Cycle)
system.cpu_cluster.cpus.quiesceCycles              23                       # Total number of cycles that CPU has spent quiesced or waiting for an interrupt (Cycle)
system.cpu_cluster.cpus.MemDepUnit__0.insertedLoads     70593647                       # Number of loads inserted to the mem dependence unit. (Count)
system.cpu_cluster.cpus.MemDepUnit__0.insertedStores      7801081                       # Number of stores inserted to the mem dependence unit. (Count)
system.cpu_cluster.cpus.MemDepUnit__0.conflictingLoads       124606                       # Number of conflicting loads. (Count)
system.cpu_cluster.cpus.MemDepUnit__0.conflictingStores        73612                       # Number of conflicting stores. (Count)
system.cpu_cluster.cpus.MemDepUnit__1.insertedLoads            0                       # Number of loads inserted to the mem dependence unit. (Count)
system.cpu_cluster.cpus.MemDepUnit__1.insertedStores            0                       # Number of stores inserted to the mem dependence unit. (Count)
system.cpu_cluster.cpus.MemDepUnit__1.conflictingLoads            0                       # Number of conflicting loads. (Count)
system.cpu_cluster.cpus.MemDepUnit__1.conflictingStores            0                       # Number of conflicting stores. (Count)
system.cpu_cluster.cpus.MemDepUnit__2.insertedLoads            0                       # Number of loads inserted to the mem dependence unit. (Count)
system.cpu_cluster.cpus.MemDepUnit__2.insertedStores            0                       # Number of stores inserted to the mem dependence unit. (Count)
system.cpu_cluster.cpus.MemDepUnit__2.conflictingLoads            0                       # Number of conflicting loads. (Count)
system.cpu_cluster.cpus.MemDepUnit__2.conflictingStores            0                       # Number of conflicting stores. (Count)
system.cpu_cluster.cpus.MemDepUnit__3.insertedLoads            0                       # Number of loads inserted to the mem dependence unit. (Count)
system.cpu_cluster.cpus.MemDepUnit__3.insertedStores            0                       # Number of stores inserted to the mem dependence unit. (Count)
system.cpu_cluster.cpus.MemDepUnit__3.conflictingLoads            0                       # Number of conflicting loads. (Count)
system.cpu_cluster.cpus.MemDepUnit__3.conflictingStores            0                       # Number of conflicting stores. (Count)
system.cpu_cluster.cpus.branchPred.lookups_0::NoBranch         3299      0.01%      0.01% # Number of BP lookups (Count)
system.cpu_cluster.cpus.branchPred.lookups_0::Return       541023      1.25%      1.25% # Number of BP lookups (Count)
system.cpu_cluster.cpus.branchPred.lookups_0::CallDirect       480631      1.11%      2.36% # Number of BP lookups (Count)
system.cpu_cluster.cpus.branchPred.lookups_0::CallIndirect        46797      0.11%      2.47% # Number of BP lookups (Count)
system.cpu_cluster.cpus.branchPred.lookups_0::DirectCond     42211985     97.31%     99.78% # Number of BP lookups (Count)
system.cpu_cluster.cpus.branchPred.lookups_0::DirectUncond        95289      0.22%    100.00% # Number of BP lookups (Count)
system.cpu_cluster.cpus.branchPred.lookups_0::IndirectCond            0      0.00%    100.00% # Number of BP lookups (Count)
system.cpu_cluster.cpus.branchPred.lookups_0::IndirectUncond         1018      0.00%    100.00% # Number of BP lookups (Count)
system.cpu_cluster.cpus.branchPred.lookups_0::total     43380042                       # Number of BP lookups (Count)
system.cpu_cluster.cpus.branchPred.squashes_0::NoBranch          286      0.05%      0.05% # Number of branches that got squashed (completely removed) as an earlier branch was mispredicted. (Count)
system.cpu_cluster.cpus.branchPred.squashes_0::Return        95072     17.55%     17.60% # Number of branches that got squashed (completely removed) as an earlier branch was mispredicted. (Count)
system.cpu_cluster.cpus.branchPred.squashes_0::CallDirect        74788     13.80%     31.40% # Number of branches that got squashed (completely removed) as an earlier branch was mispredicted. (Count)
system.cpu_cluster.cpus.branchPred.squashes_0::CallIndirect         6675      1.23%     32.64% # Number of branches that got squashed (completely removed) as an earlier branch was mispredicted. (Count)
system.cpu_cluster.cpus.branchPred.squashes_0::DirectCond       339780     62.71%     95.35% # Number of branches that got squashed (completely removed) as an earlier branch was mispredicted. (Count)
system.cpu_cluster.cpus.branchPred.squashes_0::DirectUncond        24458      4.51%     99.86% # Number of branches that got squashed (completely removed) as an earlier branch was mispredicted. (Count)
system.cpu_cluster.cpus.branchPred.squashes_0::IndirectCond            0      0.00%     99.86% # Number of branches that got squashed (completely removed) as an earlier branch was mispredicted. (Count)
system.cpu_cluster.cpus.branchPred.squashes_0::IndirectUncond          754      0.14%    100.00% # Number of branches that got squashed (completely removed) as an earlier branch was mispredicted. (Count)
system.cpu_cluster.cpus.branchPred.squashes_0::total       541813                       # Number of branches that got squashed (completely removed) as an earlier branch was mispredicted. (Count)
system.cpu_cluster.cpus.branchPred.corrected_0::NoBranch         3013      3.52%      3.52% # Number of branches that got corrected but not yet commited. Branches get corrected by decode or after execute. Also a branch misprediction can be detected out-of-order. Therefore, a corrected branch might not end up beeing committed in case an even earlier branch was mispredicted (Count)
system.cpu_cluster.cpus.branchPred.corrected_0::Return          303      0.35%      3.87% # Number of branches that got corrected but not yet commited. Branches get corrected by decode or after execute. Also a branch misprediction can be detected out-of-order. Therefore, a corrected branch might not end up beeing committed in case an even earlier branch was mispredicted (Count)
system.cpu_cluster.cpus.branchPred.corrected_0::CallDirect        22118     25.84%     29.71% # Number of branches that got corrected but not yet commited. Branches get corrected by decode or after execute. Also a branch misprediction can be detected out-of-order. Therefore, a corrected branch might not end up beeing committed in case an even earlier branch was mispredicted (Count)
system.cpu_cluster.cpus.branchPred.corrected_0::CallIndirect          735      0.86%     30.57% # Number of branches that got corrected but not yet commited. Branches get corrected by decode or after execute. Also a branch misprediction can be detected out-of-order. Therefore, a corrected branch might not end up beeing committed in case an even earlier branch was mispredicted (Count)
system.cpu_cluster.cpus.branchPred.corrected_0::DirectCond        53387     62.37%     92.94% # Number of branches that got corrected but not yet commited. Branches get corrected by decode or after execute. Also a branch misprediction can be detected out-of-order. Therefore, a corrected branch might not end up beeing committed in case an even earlier branch was mispredicted (Count)
system.cpu_cluster.cpus.branchPred.corrected_0::DirectUncond         5855      6.84%     99.78% # Number of branches that got corrected but not yet commited. Branches get corrected by decode or after execute. Also a branch misprediction can be detected out-of-order. Therefore, a corrected branch might not end up beeing committed in case an even earlier branch was mispredicted (Count)
system.cpu_cluster.cpus.branchPred.corrected_0::IndirectCond            0      0.00%     99.78% # Number of branches that got corrected but not yet commited. Branches get corrected by decode or after execute. Also a branch misprediction can be detected out-of-order. Therefore, a corrected branch might not end up beeing committed in case an even earlier branch was mispredicted (Count)
system.cpu_cluster.cpus.branchPred.corrected_0::IndirectUncond          187      0.22%    100.00% # Number of branches that got corrected but not yet commited. Branches get corrected by decode or after execute. Also a branch misprediction can be detected out-of-order. Therefore, a corrected branch might not end up beeing committed in case an even earlier branch was mispredicted (Count)
system.cpu_cluster.cpus.branchPred.corrected_0::total        85598                       # Number of branches that got corrected but not yet commited. Branches get corrected by decode or after execute. Also a branch misprediction can be detected out-of-order. Therefore, a corrected branch might not end up beeing committed in case an even earlier branch was mispredicted (Count)
system.cpu_cluster.cpus.branchPred.earlyResteers_0::NoBranch            0                       # Number of branches that got redirected after decode. (Count)
system.cpu_cluster.cpus.branchPred.earlyResteers_0::Return            0                       # Number of branches that got redirected after decode. (Count)
system.cpu_cluster.cpus.branchPred.earlyResteers_0::CallDirect            0                       # Number of branches that got redirected after decode. (Count)
system.cpu_cluster.cpus.branchPred.earlyResteers_0::CallIndirect            0                       # Number of branches that got redirected after decode. (Count)
system.cpu_cluster.cpus.branchPred.earlyResteers_0::DirectCond            0                       # Number of branches that got redirected after decode. (Count)
system.cpu_cluster.cpus.branchPred.earlyResteers_0::DirectUncond            0                       # Number of branches that got redirected after decode. (Count)
system.cpu_cluster.cpus.branchPred.earlyResteers_0::IndirectCond            0                       # Number of branches that got redirected after decode. (Count)
system.cpu_cluster.cpus.branchPred.earlyResteers_0::IndirectUncond            0                       # Number of branches that got redirected after decode. (Count)
system.cpu_cluster.cpus.branchPred.earlyResteers_0::total            0                       # Number of branches that got redirected after decode. (Count)
system.cpu_cluster.cpus.branchPred.committed_0::NoBranch         3013      0.01%      0.01% # Number of branches finally committed  (Count)
system.cpu_cluster.cpus.branchPred.committed_0::Return       445951      1.04%      1.05% # Number of branches finally committed  (Count)
system.cpu_cluster.cpus.branchPred.committed_0::CallDirect       405843      0.95%      2.00% # Number of branches finally committed  (Count)
system.cpu_cluster.cpus.branchPred.committed_0::CallIndirect        40122      0.09%      2.09% # Number of branches finally committed  (Count)
system.cpu_cluster.cpus.branchPred.committed_0::DirectCond     41872205     97.74%     99.83% # Number of branches finally committed  (Count)
system.cpu_cluster.cpus.branchPred.committed_0::DirectUncond        70831      0.17%    100.00% # Number of branches finally committed  (Count)
system.cpu_cluster.cpus.branchPred.committed_0::IndirectCond            0      0.00%    100.00% # Number of branches finally committed  (Count)
system.cpu_cluster.cpus.branchPred.committed_0::IndirectUncond          264      0.00%    100.00% # Number of branches finally committed  (Count)
system.cpu_cluster.cpus.branchPred.committed_0::total     42838229                       # Number of branches finally committed  (Count)
system.cpu_cluster.cpus.branchPred.mispredicted_0::NoBranch         3013      3.79%      3.79% # Number of committed branches that were mispredicted. (Count)
system.cpu_cluster.cpus.branchPred.mispredicted_0::Return          238      0.30%      4.09% # Number of committed branches that were mispredicted. (Count)
system.cpu_cluster.cpus.branchPred.mispredicted_0::CallDirect        19169     24.09%     28.18% # Number of committed branches that were mispredicted. (Count)
system.cpu_cluster.cpus.branchPred.mispredicted_0::CallIndirect          713      0.90%     29.07% # Number of committed branches that were mispredicted. (Count)
system.cpu_cluster.cpus.branchPred.mispredicted_0::DirectCond        51590     64.84%     93.91% # Number of committed branches that were mispredicted. (Count)
system.cpu_cluster.cpus.branchPred.mispredicted_0::DirectUncond         4680      5.88%     99.80% # Number of committed branches that were mispredicted. (Count)
system.cpu_cluster.cpus.branchPred.mispredicted_0::IndirectCond            0      0.00%     99.80% # Number of committed branches that were mispredicted. (Count)
system.cpu_cluster.cpus.branchPred.mispredicted_0::IndirectUncond          162      0.20%    100.00% # Number of committed branches that were mispredicted. (Count)
system.cpu_cluster.cpus.branchPred.mispredicted_0::total        79565                       # Number of committed branches that were mispredicted. (Count)
system.cpu_cluster.cpus.branchPred.targetProvider_0::NoTarget      1058126      2.44%      2.44% # The component providing the target for taken branches (Count)
system.cpu_cluster.cpus.branchPred.targetProvider_0::BTB     41739410     96.22%     98.66% # The component providing the target for taken branches (Count)
system.cpu_cluster.cpus.branchPred.targetProvider_0::RAS       541023      1.25%     99.90% # The component providing the target for taken branches (Count)
system.cpu_cluster.cpus.branchPred.targetProvider_0::Indirect        41483      0.10%    100.00% # The component providing the target for taken branches (Count)
system.cpu_cluster.cpus.branchPred.targetProvider_0::total     43380042                       # The component providing the target for taken branches (Count)
system.cpu_cluster.cpus.branchPred.targetWrong_0::NoBranch        72855     85.11%     85.11% # Number of branches where the target was incorrect or not available at prediction time. (Count)
system.cpu_cluster.cpus.branchPred.targetWrong_0::Return        12357     14.44%     99.55% # Number of branches where the target was incorrect or not available at prediction time. (Count)
system.cpu_cluster.cpus.branchPred.targetWrong_0::CallDirect          303      0.35%     99.90% # Number of branches where the target was incorrect or not available at prediction time. (Count)
system.cpu_cluster.cpus.branchPred.targetWrong_0::CallIndirect           83      0.10%    100.00% # Number of branches where the target was incorrect or not available at prediction time. (Count)
system.cpu_cluster.cpus.branchPred.targetWrong_0::DirectCond            0      0.00%    100.00% # Number of branches where the target was incorrect or not available at prediction time. (Count)
system.cpu_cluster.cpus.branchPred.targetWrong_0::DirectUncond            0      0.00%    100.00% # Number of branches where the target was incorrect or not available at prediction time. (Count)
system.cpu_cluster.cpus.branchPred.targetWrong_0::IndirectCond            0      0.00%    100.00% # Number of branches where the target was incorrect or not available at prediction time. (Count)
system.cpu_cluster.cpus.branchPred.targetWrong_0::IndirectUncond            0      0.00%    100.00% # Number of branches where the target was incorrect or not available at prediction time. (Count)
system.cpu_cluster.cpus.branchPred.targetWrong_0::total        85598                       # Number of branches where the target was incorrect or not available at prediction time. (Count)
system.cpu_cluster.cpus.branchPred.condPredicted     42215284                       # Number of conditional branches predicted (Count)
system.cpu_cluster.cpus.branchPred.condPredictedTaken     41283289                       # Number of conditional branches predicted as taken (Count)
system.cpu_cluster.cpus.branchPred.condIncorrect        85598                       # Number of conditional branches incorrect (Count)
system.cpu_cluster.cpus.branchPred.predTakenBTBMiss        47300                       # Number of branches predicted taken but missed in BTB (Count)
system.cpu_cluster.cpus.branchPred.NotTakenMispredicted        73241                       # Number branches predicted 'not taken' but turned out to be taken (Count)
system.cpu_cluster.cpus.branchPred.TakenMispredicted        12357                       # Number branches predicted taken but are actually not taken (Count)
system.cpu_cluster.cpus.branchPred.BTBLookups     43380042                       # Number of BTB lookups (Count)
system.cpu_cluster.cpus.branchPred.BTBUpdates        69003                       # Number of BTB updates (Count)
system.cpu_cluster.cpus.branchPred.BTBHits     42010004                       # Number of BTB hits (Count)
system.cpu_cluster.cpus.branchPred.BTBHitRatio     0.968418                       # BTB Hit Ratio (Ratio)
system.cpu_cluster.cpus.branchPred.BTBMispredicted        49682                       # Number BTB mispredictions. No target found or target wrong (Count)
system.cpu_cluster.cpus.branchPred.indirectLookups        47815                       # Number of indirect predictor lookups. (Count)
system.cpu_cluster.cpus.branchPred.indirectHits        41483                       # Number of indirect target hits. (Count)
system.cpu_cluster.cpus.branchPred.indirectMisses         6332                       # Number of indirect misses. (Count)
system.cpu_cluster.cpus.branchPred.indirectMispredicted            0                       # Number of mispredicted indirect branches. (Count)
system.cpu_cluster.cpus.branchPred.btb.lookups::NoBranch         3299      0.01%      0.01% # Number of BTB lookups (Count)
system.cpu_cluster.cpus.branchPred.btb.lookups::Return       541023      1.25%      1.25% # Number of BTB lookups (Count)
system.cpu_cluster.cpus.branchPred.btb.lookups::CallDirect       480631      1.11%      2.36% # Number of BTB lookups (Count)
system.cpu_cluster.cpus.branchPred.btb.lookups::CallIndirect        46797      0.11%      2.47% # Number of BTB lookups (Count)
system.cpu_cluster.cpus.branchPred.btb.lookups::DirectCond     42211985     97.31%     99.78% # Number of BTB lookups (Count)
system.cpu_cluster.cpus.branchPred.btb.lookups::DirectUncond        95289      0.22%    100.00% # Number of BTB lookups (Count)
system.cpu_cluster.cpus.branchPred.btb.lookups::IndirectCond            0      0.00%    100.00% # Number of BTB lookups (Count)
system.cpu_cluster.cpus.branchPred.btb.lookups::IndirectUncond         1018      0.00%    100.00% # Number of BTB lookups (Count)
system.cpu_cluster.cpus.branchPred.btb.lookups::total     43380042                       # Number of BTB lookups (Count)
system.cpu_cluster.cpus.branchPred.btb.misses::NoBranch         3299      0.24%      0.24% # Number of BTB misses (Count)
system.cpu_cluster.cpus.branchPred.btb.misses::Return       541023     39.49%     39.73% # Number of BTB misses (Count)
system.cpu_cluster.cpus.branchPred.btb.misses::CallDirect        31240      2.28%     42.01% # Number of BTB misses (Count)
system.cpu_cluster.cpus.branchPred.btb.misses::CallIndirect        46797      3.42%     45.43% # Number of BTB misses (Count)
system.cpu_cluster.cpus.branchPred.btb.misses::DirectCond       735276     53.67%     99.09% # Number of BTB misses (Count)
system.cpu_cluster.cpus.branchPred.btb.misses::DirectUncond        11385      0.83%     99.93% # Number of BTB misses (Count)
system.cpu_cluster.cpus.branchPred.btb.misses::IndirectCond            0      0.00%     99.93% # Number of BTB misses (Count)
system.cpu_cluster.cpus.branchPred.btb.misses::IndirectUncond         1018      0.07%    100.00% # Number of BTB misses (Count)
system.cpu_cluster.cpus.branchPred.btb.misses::total      1370038                       # Number of BTB misses (Count)
system.cpu_cluster.cpus.branchPred.btb.updates::NoBranch            0      0.00%      0.00% # Number of BTB updates (Count)
system.cpu_cluster.cpus.branchPred.btb.updates::Return            0      0.00%      0.00% # Number of BTB updates (Count)
system.cpu_cluster.cpus.branchPred.btb.updates::CallDirect        22118     32.05%     32.05% # Number of BTB updates (Count)
system.cpu_cluster.cpus.branchPred.btb.updates::CallIndirect            0      0.00%     32.05% # Number of BTB updates (Count)
system.cpu_cluster.cpus.branchPred.btb.updates::DirectCond        41030     59.46%     91.51% # Number of BTB updates (Count)
system.cpu_cluster.cpus.branchPred.btb.updates::DirectUncond         5855      8.49%    100.00% # Number of BTB updates (Count)
system.cpu_cluster.cpus.branchPred.btb.updates::IndirectCond            0      0.00%    100.00% # Number of BTB updates (Count)
system.cpu_cluster.cpus.branchPred.btb.updates::IndirectUncond            0      0.00%    100.00% # Number of BTB updates (Count)
system.cpu_cluster.cpus.branchPred.btb.updates::total        69003                       # Number of BTB updates (Count)
system.cpu_cluster.cpus.branchPred.btb.mispredict::NoBranch            0      0.00%      0.00% # Number of BTB mispredictions. No target found or target wrong. (Count)
system.cpu_cluster.cpus.branchPred.btb.mispredict::Return            0      0.00%      0.00% # Number of BTB mispredictions. No target found or target wrong. (Count)
system.cpu_cluster.cpus.branchPred.btb.mispredict::CallDirect        22118     32.05%     32.05% # Number of BTB mispredictions. No target found or target wrong. (Count)
system.cpu_cluster.cpus.branchPred.btb.mispredict::CallIndirect            0      0.00%     32.05% # Number of BTB mispredictions. No target found or target wrong. (Count)
system.cpu_cluster.cpus.branchPred.btb.mispredict::DirectCond        41030     59.46%     91.51% # Number of BTB mispredictions. No target found or target wrong. (Count)
system.cpu_cluster.cpus.branchPred.btb.mispredict::DirectUncond         5855      8.49%    100.00% # Number of BTB mispredictions. No target found or target wrong. (Count)
system.cpu_cluster.cpus.branchPred.btb.mispredict::IndirectCond            0      0.00%    100.00% # Number of BTB mispredictions. No target found or target wrong. (Count)
system.cpu_cluster.cpus.branchPred.btb.mispredict::IndirectUncond            0      0.00%    100.00% # Number of BTB mispredictions. No target found or target wrong. (Count)
system.cpu_cluster.cpus.branchPred.btb.mispredict::total        69003                       # Number of BTB mispredictions. No target found or target wrong. (Count)
system.cpu_cluster.cpus.branchPred.btb.power_state.pwrStateResidencyTicks::UNDEFINED 1336744186750                       # Cumulative time (in ticks) in various power states (Tick)
system.cpu_cluster.cpus.branchPred.indirectBranchPred.lookups        47815                       # Number of lookups (Count)
system.cpu_cluster.cpus.branchPred.indirectBranchPred.hits        41483                       # Number of hits of a tag (Count)
system.cpu_cluster.cpus.branchPred.indirectBranchPred.misses         6332                       # Number of misses (Count)
system.cpu_cluster.cpus.branchPred.indirectBranchPred.targetRecords          922                       # Number of targets that where recorded/installed in the cache (Count)
system.cpu_cluster.cpus.branchPred.indirectBranchPred.indirectRecords        48737                       # Number of indirect branches/calls recorded in the indirect hist (Count)
system.cpu_cluster.cpus.branchPred.indirectBranchPred.speculativeOverflows            0                       # Number of times more than the allowed capacity for speculative branches/calls where in flight and destroy the path history (Count)
system.cpu_cluster.cpus.branchPred.ras.pushes       622500                       # Number of times a PC was pushed onto the RAS (Count)
system.cpu_cluster.cpus.branchPred.ras.pops       622486                       # Number of times a PC was poped from the RAS (Count)
system.cpu_cluster.cpus.branchPred.ras.squashes       176535                       # Number of times the stack operation was squashed due to wrong speculation. (Count)
system.cpu_cluster.cpus.branchPred.ras.used       445951                       # Number of times the RAS is the provider (Count)
system.cpu_cluster.cpus.branchPred.ras.correct       445713                       # Number of times the RAS is the provider and the prediction is correct (Count)
system.cpu_cluster.cpus.branchPred.ras.incorrect          238                       # Number of times the RAS is the provider and the prediction is wrong (Count)
system.cpu_cluster.cpus.commit.commitSquashedInsts       735204                       # The number of squashed insts skipped by commit (Count)
system.cpu_cluster.cpus.commit.commitNonSpecStalls       102255                       # The number of times commit has been forced to stall to communicate backwards (Count)
system.cpu_cluster.cpus.commit.branchMispredicts        57921                       # The number of times a branch was mispredicted (Count)
system.cpu_cluster.cpus.commit.numCommittedDist::samples   4414089137                       # Number of insts commited each cycle (Count)
system.cpu_cluster.cpus.commit.numCommittedDist::mean     0.040091                       # Number of insts commited each cycle (Count)
system.cpu_cluster.cpus.commit.numCommittedDist::stdev     0.382663                       # Number of insts commited each cycle (Count)
system.cpu_cluster.cpus.commit.numCommittedDist::underflows            0      0.00%      0.00% # Number of insts commited each cycle (Count)
system.cpu_cluster.cpus.commit.numCommittedDist::0   4357013714     98.71%     98.71% # Number of insts commited each cycle (Count)
system.cpu_cluster.cpus.commit.numCommittedDist::1     13509289      0.31%     99.01% # Number of insts commited each cycle (Count)
system.cpu_cluster.cpus.commit.numCommittedDist::2      3914133      0.09%     99.10% # Number of insts commited each cycle (Count)
system.cpu_cluster.cpus.commit.numCommittedDist::3      5526314      0.13%     99.23% # Number of insts commited each cycle (Count)
system.cpu_cluster.cpus.commit.numCommittedDist::4     33101422      0.75%     99.98% # Number of insts commited each cycle (Count)
system.cpu_cluster.cpus.commit.numCommittedDist::5       406956      0.01%     99.99% # Number of insts commited each cycle (Count)
system.cpu_cluster.cpus.commit.numCommittedDist::6       104004      0.00%     99.99% # Number of insts commited each cycle (Count)
system.cpu_cluster.cpus.commit.numCommittedDist::7       122772      0.00%     99.99% # Number of insts commited each cycle (Count)
system.cpu_cluster.cpus.commit.numCommittedDist::8       390533      0.01%    100.00% # Number of insts commited each cycle (Count)
system.cpu_cluster.cpus.commit.numCommittedDist::overflows            0      0.00%    100.00% # Number of insts commited each cycle (Count)
system.cpu_cluster.cpus.commit.numCommittedDist::min_value            0                       # Number of insts commited each cycle (Count)
system.cpu_cluster.cpus.commit.numCommittedDist::max_value            8                       # Number of insts commited each cycle (Count)
system.cpu_cluster.cpus.commit.numCommittedDist::total   4414089137                       # Number of insts commited each cycle (Count)
system.cpu_cluster.cpus.commit.amos                 0                       # Number of atomic instructions committed (Count)
system.cpu_cluster.cpus.commit.membars          54864                       # Number of memory barriers committed (Count)
system.cpu_cluster.cpus.commit.functionCalls       445965                       # Number of function calls committed. (Count)
system.cpu_cluster.cpus.commit.committedInstType_0::No_OpClass           14      0.00%      0.00% # Class of committed instruction (Count)
system.cpu_cluster.cpus.commit.committedInstType_0::IntAlu     98788006     55.82%     55.82% # Class of committed instruction (Count)
system.cpu_cluster.cpus.commit.committedInstType_0::IntMult        20693      0.01%     55.84% # Class of committed instruction (Count)
system.cpu_cluster.cpus.commit.committedInstType_0::IntDiv         1553      0.00%     55.84% # Class of committed instruction (Count)
system.cpu_cluster.cpus.commit.committedInstType_0::FloatAdd            0      0.00%     55.84% # Class of committed instruction (Count)
system.cpu_cluster.cpus.commit.committedInstType_0::FloatCmp            9      0.00%     55.84% # Class of committed instruction (Count)
system.cpu_cluster.cpus.commit.committedInstType_0::FloatCvt           15      0.00%     55.84% # Class of committed instruction (Count)
system.cpu_cluster.cpus.commit.committedInstType_0::FloatMult            6      0.00%     55.84% # Class of committed instruction (Count)
system.cpu_cluster.cpus.commit.committedInstType_0::FloatMultAcc            0      0.00%     55.84% # Class of committed instruction (Count)
system.cpu_cluster.cpus.commit.committedInstType_0::FloatDiv            5      0.00%     55.84% # Class of committed instruction (Count)
system.cpu_cluster.cpus.commit.committedInstType_0::FloatMisc            8      0.00%     55.84% # Class of committed instruction (Count)
system.cpu_cluster.cpus.commit.committedInstType_0::FloatSqrt            0      0.00%     55.84% # Class of committed instruction (Count)
system.cpu_cluster.cpus.commit.committedInstType_0::SimdAdd           43      0.00%     55.84% # Class of committed instruction (Count)
system.cpu_cluster.cpus.commit.committedInstType_0::SimdAddAcc            0      0.00%     55.84% # Class of committed instruction (Count)
system.cpu_cluster.cpus.commit.committedInstType_0::SimdAlu           77      0.00%     55.84% # Class of committed instruction (Count)
system.cpu_cluster.cpus.commit.committedInstType_0::SimdCmp           56      0.00%     55.84% # Class of committed instruction (Count)
system.cpu_cluster.cpus.commit.committedInstType_0::SimdCvt            0      0.00%     55.84% # Class of committed instruction (Count)
system.cpu_cluster.cpus.commit.committedInstType_0::SimdMisc           61      0.00%     55.84% # Class of committed instruction (Count)
system.cpu_cluster.cpus.commit.committedInstType_0::SimdMult            0      0.00%     55.84% # Class of committed instruction (Count)
system.cpu_cluster.cpus.commit.committedInstType_0::SimdMultAcc            0      0.00%     55.84% # Class of committed instruction (Count)
system.cpu_cluster.cpus.commit.committedInstType_0::SimdMatMultAcc            0      0.00%     55.84% # Class of committed instruction (Count)
system.cpu_cluster.cpus.commit.committedInstType_0::SimdShift            0      0.00%     55.84% # Class of committed instruction (Count)
system.cpu_cluster.cpus.commit.committedInstType_0::SimdShiftAcc            0      0.00%     55.84% # Class of committed instruction (Count)
system.cpu_cluster.cpus.commit.committedInstType_0::SimdDiv            0      0.00%     55.84% # Class of committed instruction (Count)
system.cpu_cluster.cpus.commit.committedInstType_0::SimdSqrt            0      0.00%     55.84% # Class of committed instruction (Count)
system.cpu_cluster.cpus.commit.committedInstType_0::SimdFloatAdd            0      0.00%     55.84% # Class of committed instruction (Count)
system.cpu_cluster.cpus.commit.committedInstType_0::SimdFloatAlu            0      0.00%     55.84% # Class of committed instruction (Count)
system.cpu_cluster.cpus.commit.committedInstType_0::SimdFloatCmp            0      0.00%     55.84% # Class of committed instruction (Count)
system.cpu_cluster.cpus.commit.committedInstType_0::SimdFloatCvt            0      0.00%     55.84% # Class of committed instruction (Count)
system.cpu_cluster.cpus.commit.committedInstType_0::SimdFloatDiv            0      0.00%     55.84% # Class of committed instruction (Count)
system.cpu_cluster.cpus.commit.committedInstType_0::SimdFloatMisc            0      0.00%     55.84% # Class of committed instruction (Count)
system.cpu_cluster.cpus.commit.committedInstType_0::SimdFloatMult            0      0.00%     55.84% # Class of committed instruction (Count)
system.cpu_cluster.cpus.commit.committedInstType_0::SimdFloatMultAcc            0      0.00%     55.84% # Class of committed instruction (Count)
system.cpu_cluster.cpus.commit.committedInstType_0::SimdFloatMatMultAcc            0      0.00%     55.84% # Class of committed instruction (Count)
system.cpu_cluster.cpus.commit.committedInstType_0::SimdFloatSqrt            0      0.00%     55.84% # Class of committed instruction (Count)
system.cpu_cluster.cpus.commit.committedInstType_0::SimdReduceAdd            0      0.00%     55.84% # Class of committed instruction (Count)
system.cpu_cluster.cpus.commit.committedInstType_0::SimdReduceAlu            0      0.00%     55.84% # Class of committed instruction (Count)
system.cpu_cluster.cpus.commit.committedInstType_0::SimdReduceCmp            0      0.00%     55.84% # Class of committed instruction (Count)
system.cpu_cluster.cpus.commit.committedInstType_0::SimdFloatReduceAdd            0      0.00%     55.84% # Class of committed instruction (Count)
system.cpu_cluster.cpus.commit.committedInstType_0::SimdFloatReduceCmp            0      0.00%     55.84% # Class of committed instruction (Count)
system.cpu_cluster.cpus.commit.committedInstType_0::SimdAes            0      0.00%     55.84% # Class of committed instruction (Count)
system.cpu_cluster.cpus.commit.committedInstType_0::SimdAesMix            0      0.00%     55.84% # Class of committed instruction (Count)
system.cpu_cluster.cpus.commit.committedInstType_0::SimdSha1Hash            0      0.00%     55.84% # Class of committed instruction (Count)
system.cpu_cluster.cpus.commit.committedInstType_0::SimdSha1Hash2            0      0.00%     55.84% # Class of committed instruction (Count)
system.cpu_cluster.cpus.commit.committedInstType_0::SimdSha256Hash            0      0.00%     55.84% # Class of committed instruction (Count)
system.cpu_cluster.cpus.commit.committedInstType_0::SimdSha256Hash2            0      0.00%     55.84% # Class of committed instruction (Count)
system.cpu_cluster.cpus.commit.committedInstType_0::SimdShaSigma2            0      0.00%     55.84% # Class of committed instruction (Count)
system.cpu_cluster.cpus.commit.committedInstType_0::SimdShaSigma3            0      0.00%     55.84% # Class of committed instruction (Count)
system.cpu_cluster.cpus.commit.committedInstType_0::SimdPredAlu            0      0.00%     55.84% # Class of committed instruction (Count)
system.cpu_cluster.cpus.commit.committedInstType_0::Matrix            0      0.00%     55.84% # Class of committed instruction (Count)
system.cpu_cluster.cpus.commit.committedInstType_0::MatrixMov            0      0.00%     55.84% # Class of committed instruction (Count)
system.cpu_cluster.cpus.commit.committedInstType_0::MatrixOP            0      0.00%     55.84% # Class of committed instruction (Count)
system.cpu_cluster.cpus.commit.committedInstType_0::MemRead     70457661     39.81%     95.65% # Class of committed instruction (Count)
system.cpu_cluster.cpus.commit.committedInstType_0::MemWrite      7696450      4.35%    100.00% # Class of committed instruction (Count)
system.cpu_cluster.cpus.commit.committedInstType_0::FloatMemRead            0      0.00%    100.00% # Class of committed instruction (Count)
system.cpu_cluster.cpus.commit.committedInstType_0::FloatMemWrite            0      0.00%    100.00% # Class of committed instruction (Count)
system.cpu_cluster.cpus.commit.committedInstType_0::IprAccess            0      0.00%    100.00% # Class of committed instruction (Count)
system.cpu_cluster.cpus.commit.committedInstType_0::InstPrefetch            0      0.00%    100.00% # Class of committed instruction (Count)
system.cpu_cluster.cpus.commit.committedInstType_0::SimdUnitStrideLoad            0      0.00%    100.00% # Class of committed instruction (Count)
system.cpu_cluster.cpus.commit.committedInstType_0::SimdUnitStrideStore            0      0.00%    100.00% # Class of committed instruction (Count)
system.cpu_cluster.cpus.commit.committedInstType_0::SimdUnitStrideMaskLoad            0      0.00%    100.00% # Class of committed instruction (Count)
system.cpu_cluster.cpus.commit.committedInstType_0::SimdUnitStrideMaskStore            0      0.00%    100.00% # Class of committed instruction (Count)
system.cpu_cluster.cpus.commit.committedInstType_0::SimdStridedLoad            0      0.00%    100.00% # Class of committed instruction (Count)
system.cpu_cluster.cpus.commit.committedInstType_0::SimdStridedStore            0      0.00%    100.00% # Class of committed instruction (Count)
system.cpu_cluster.cpus.commit.committedInstType_0::SimdIndexedLoad            0      0.00%    100.00% # Class of committed instruction (Count)
system.cpu_cluster.cpus.commit.committedInstType_0::SimdIndexedStore            0      0.00%    100.00% # Class of committed instruction (Count)
system.cpu_cluster.cpus.commit.committedInstType_0::SimdWholeRegisterLoad            0      0.00%    100.00% # Class of committed instruction (Count)
system.cpu_cluster.cpus.commit.committedInstType_0::SimdWholeRegisterStore            0      0.00%    100.00% # Class of committed instruction (Count)
system.cpu_cluster.cpus.commit.committedInstType_0::SimdUnitStrideFaultOnlyFirstLoad            0      0.00%    100.00% # Class of committed instruction (Count)
system.cpu_cluster.cpus.commit.committedInstType_0::SimdUnitStrideSegmentedLoad            0      0.00%    100.00% # Class of committed instruction (Count)
system.cpu_cluster.cpus.commit.committedInstType_0::SimdUnitStrideSegmentedStore            0      0.00%    100.00% # Class of committed instruction (Count)
system.cpu_cluster.cpus.commit.committedInstType_0::SimdExt            0      0.00%    100.00% # Class of committed instruction (Count)
system.cpu_cluster.cpus.commit.committedInstType_0::SimdFloatExt            0      0.00%    100.00% # Class of committed instruction (Count)
system.cpu_cluster.cpus.commit.committedInstType_0::SimdConfig            0      0.00%    100.00% # Class of committed instruction (Count)
system.cpu_cluster.cpus.commit.committedInstType_0::total    176964657                       # Class of committed instruction (Count)
system.cpu_cluster.cpus.commit.commitEligibleSamples       390533                       # number cycles where commit BW limit reached (Cycle)
system.cpu_cluster.cpus.commitStats0.numInsts    173919302                       # Number of instructions committed (thread level) (Count)
system.cpu_cluster.cpus.commitStats0.numOps    176964657                       # Number of ops (including micro ops) committed (thread level) (Count)
system.cpu_cluster.cpus.commitStats0.numInstsNotNOP    173892035                       # Number of instructions committed excluding NOPs or prefetches (Count)
system.cpu_cluster.cpus.commitStats0.numOpsNotNOP    176937390                       # Number of Ops (including micro ops) Simulated (Count)
system.cpu_cluster.cpus.commitStats0.cpi    25.415066                       # CPI: cycles per instruction (thread level) ((Cycle/Count))
system.cpu_cluster.cpus.commitStats0.ipc     0.039347                       # IPC: instructions per cycle (thread level) ((Count/Cycle))
system.cpu_cluster.cpus.commitStats0.numMemRefs     78154111                       # Number of memory references committed (Count)
system.cpu_cluster.cpus.commitStats0.numFpInsts            0                       # Number of float instructions (Count)
system.cpu_cluster.cpus.commitStats0.numIntInsts    171003057                       # Number of integer instructions (Count)
system.cpu_cluster.cpus.commitStats0.numLoadInsts     70457661                       # Number of load instructions (Count)
system.cpu_cluster.cpus.commitStats0.numStoreInsts      7696450                       # Number of store instructions (Count)
system.cpu_cluster.cpus.commitStats0.numVecInsts         2159                       # Number of vector instructions (Count)
system.cpu_cluster.cpus.commitStats0.committedInstType::No_OpClass           14      0.00%      0.00% # Class of committed instruction. (Count)
system.cpu_cluster.cpus.commitStats0.committedInstType::IntAlu     98788006     55.82%     55.82% # Class of committed instruction. (Count)
system.cpu_cluster.cpus.commitStats0.committedInstType::IntMult        20693      0.01%     55.84% # Class of committed instruction. (Count)
system.cpu_cluster.cpus.commitStats0.committedInstType::IntDiv         1553      0.00%     55.84% # Class of committed instruction. (Count)
system.cpu_cluster.cpus.commitStats0.committedInstType::FloatAdd            0      0.00%     55.84% # Class of committed instruction. (Count)
system.cpu_cluster.cpus.commitStats0.committedInstType::FloatCmp            9      0.00%     55.84% # Class of committed instruction. (Count)
system.cpu_cluster.cpus.commitStats0.committedInstType::FloatCvt           15      0.00%     55.84% # Class of committed instruction. (Count)
system.cpu_cluster.cpus.commitStats0.committedInstType::FloatMult            6      0.00%     55.84% # Class of committed instruction. (Count)
system.cpu_cluster.cpus.commitStats0.committedInstType::FloatMultAcc            0      0.00%     55.84% # Class of committed instruction. (Count)
system.cpu_cluster.cpus.commitStats0.committedInstType::FloatDiv            5      0.00%     55.84% # Class of committed instruction. (Count)
system.cpu_cluster.cpus.commitStats0.committedInstType::FloatMisc            8      0.00%     55.84% # Class of committed instruction. (Count)
system.cpu_cluster.cpus.commitStats0.committedInstType::FloatSqrt            0      0.00%     55.84% # Class of committed instruction. (Count)
system.cpu_cluster.cpus.commitStats0.committedInstType::SimdAdd           43      0.00%     55.84% # Class of committed instruction. (Count)
system.cpu_cluster.cpus.commitStats0.committedInstType::SimdAddAcc            0      0.00%     55.84% # Class of committed instruction. (Count)
system.cpu_cluster.cpus.commitStats0.committedInstType::SimdAlu           77      0.00%     55.84% # Class of committed instruction. (Count)
system.cpu_cluster.cpus.commitStats0.committedInstType::SimdCmp           56      0.00%     55.84% # Class of committed instruction. (Count)
system.cpu_cluster.cpus.commitStats0.committedInstType::SimdCvt            0      0.00%     55.84% # Class of committed instruction. (Count)
system.cpu_cluster.cpus.commitStats0.committedInstType::SimdMisc           61      0.00%     55.84% # Class of committed instruction. (Count)
system.cpu_cluster.cpus.commitStats0.committedInstType::SimdMult            0      0.00%     55.84% # Class of committed instruction. (Count)
system.cpu_cluster.cpus.commitStats0.committedInstType::SimdMultAcc            0      0.00%     55.84% # Class of committed instruction. (Count)
system.cpu_cluster.cpus.commitStats0.committedInstType::SimdMatMultAcc            0      0.00%     55.84% # Class of committed instruction. (Count)
system.cpu_cluster.cpus.commitStats0.committedInstType::SimdShift            0      0.00%     55.84% # Class of committed instruction. (Count)
system.cpu_cluster.cpus.commitStats0.committedInstType::SimdShiftAcc            0      0.00%     55.84% # Class of committed instruction. (Count)
system.cpu_cluster.cpus.commitStats0.committedInstType::SimdDiv            0      0.00%     55.84% # Class of committed instruction. (Count)
system.cpu_cluster.cpus.commitStats0.committedInstType::SimdSqrt            0      0.00%     55.84% # Class of committed instruction. (Count)
system.cpu_cluster.cpus.commitStats0.committedInstType::SimdFloatAdd            0      0.00%     55.84% # Class of committed instruction. (Count)
system.cpu_cluster.cpus.commitStats0.committedInstType::SimdFloatAlu            0      0.00%     55.84% # Class of committed instruction. (Count)
system.cpu_cluster.cpus.commitStats0.committedInstType::SimdFloatCmp            0      0.00%     55.84% # Class of committed instruction. (Count)
system.cpu_cluster.cpus.commitStats0.committedInstType::SimdFloatCvt            0      0.00%     55.84% # Class of committed instruction. (Count)
system.cpu_cluster.cpus.commitStats0.committedInstType::SimdFloatDiv            0      0.00%     55.84% # Class of committed instruction. (Count)
system.cpu_cluster.cpus.commitStats0.committedInstType::SimdFloatMisc            0      0.00%     55.84% # Class of committed instruction. (Count)
system.cpu_cluster.cpus.commitStats0.committedInstType::SimdFloatMult            0      0.00%     55.84% # Class of committed instruction. (Count)
system.cpu_cluster.cpus.commitStats0.committedInstType::SimdFloatMultAcc            0      0.00%     55.84% # Class of committed instruction. (Count)
system.cpu_cluster.cpus.commitStats0.committedInstType::SimdFloatMatMultAcc            0      0.00%     55.84% # Class of committed instruction. (Count)
system.cpu_cluster.cpus.commitStats0.committedInstType::SimdFloatSqrt            0      0.00%     55.84% # Class of committed instruction. (Count)
system.cpu_cluster.cpus.commitStats0.committedInstType::SimdReduceAdd            0      0.00%     55.84% # Class of committed instruction. (Count)
system.cpu_cluster.cpus.commitStats0.committedInstType::SimdReduceAlu            0      0.00%     55.84% # Class of committed instruction. (Count)
system.cpu_cluster.cpus.commitStats0.committedInstType::SimdReduceCmp            0      0.00%     55.84% # Class of committed instruction. (Count)
system.cpu_cluster.cpus.commitStats0.committedInstType::SimdFloatReduceAdd            0      0.00%     55.84% # Class of committed instruction. (Count)
system.cpu_cluster.cpus.commitStats0.committedInstType::SimdFloatReduceCmp            0      0.00%     55.84% # Class of committed instruction. (Count)
system.cpu_cluster.cpus.commitStats0.committedInstType::SimdAes            0      0.00%     55.84% # Class of committed instruction. (Count)
system.cpu_cluster.cpus.commitStats0.committedInstType::SimdAesMix            0      0.00%     55.84% # Class of committed instruction. (Count)
system.cpu_cluster.cpus.commitStats0.committedInstType::SimdSha1Hash            0      0.00%     55.84% # Class of committed instruction. (Count)
system.cpu_cluster.cpus.commitStats0.committedInstType::SimdSha1Hash2            0      0.00%     55.84% # Class of committed instruction. (Count)
system.cpu_cluster.cpus.commitStats0.committedInstType::SimdSha256Hash            0      0.00%     55.84% # Class of committed instruction. (Count)
system.cpu_cluster.cpus.commitStats0.committedInstType::SimdSha256Hash2            0      0.00%     55.84% # Class of committed instruction. (Count)
system.cpu_cluster.cpus.commitStats0.committedInstType::SimdShaSigma2            0      0.00%     55.84% # Class of committed instruction. (Count)
system.cpu_cluster.cpus.commitStats0.committedInstType::SimdShaSigma3            0      0.00%     55.84% # Class of committed instruction. (Count)
system.cpu_cluster.cpus.commitStats0.committedInstType::SimdPredAlu            0      0.00%     55.84% # Class of committed instruction. (Count)
system.cpu_cluster.cpus.commitStats0.committedInstType::Matrix            0      0.00%     55.84% # Class of committed instruction. (Count)
system.cpu_cluster.cpus.commitStats0.committedInstType::MatrixMov            0      0.00%     55.84% # Class of committed instruction. (Count)
system.cpu_cluster.cpus.commitStats0.committedInstType::MatrixOP            0      0.00%     55.84% # Class of committed instruction. (Count)
system.cpu_cluster.cpus.commitStats0.committedInstType::MemRead     70457661     39.81%     95.65% # Class of committed instruction. (Count)
system.cpu_cluster.cpus.commitStats0.committedInstType::MemWrite      7696450      4.35%    100.00% # Class of committed instruction. (Count)
system.cpu_cluster.cpus.commitStats0.committedInstType::FloatMemRead            0      0.00%    100.00% # Class of committed instruction. (Count)
system.cpu_cluster.cpus.commitStats0.committedInstType::FloatMemWrite            0      0.00%    100.00% # Class of committed instruction. (Count)
system.cpu_cluster.cpus.commitStats0.committedInstType::IprAccess            0      0.00%    100.00% # Class of committed instruction. (Count)
system.cpu_cluster.cpus.commitStats0.committedInstType::InstPrefetch            0      0.00%    100.00% # Class of committed instruction. (Count)
system.cpu_cluster.cpus.commitStats0.committedInstType::SimdUnitStrideLoad            0      0.00%    100.00% # Class of committed instruction. (Count)
system.cpu_cluster.cpus.commitStats0.committedInstType::SimdUnitStrideStore            0      0.00%    100.00% # Class of committed instruction. (Count)
system.cpu_cluster.cpus.commitStats0.committedInstType::SimdUnitStrideMaskLoad            0      0.00%    100.00% # Class of committed instruction. (Count)
system.cpu_cluster.cpus.commitStats0.committedInstType::SimdUnitStrideMaskStore            0      0.00%    100.00% # Class of committed instruction. (Count)
system.cpu_cluster.cpus.commitStats0.committedInstType::SimdStridedLoad            0      0.00%    100.00% # Class of committed instruction. (Count)
system.cpu_cluster.cpus.commitStats0.committedInstType::SimdStridedStore            0      0.00%    100.00% # Class of committed instruction. (Count)
system.cpu_cluster.cpus.commitStats0.committedInstType::SimdIndexedLoad            0      0.00%    100.00% # Class of committed instruction. (Count)
system.cpu_cluster.cpus.commitStats0.committedInstType::SimdIndexedStore            0      0.00%    100.00% # Class of committed instruction. (Count)
system.cpu_cluster.cpus.commitStats0.committedInstType::SimdWholeRegisterLoad            0      0.00%    100.00% # Class of committed instruction. (Count)
system.cpu_cluster.cpus.commitStats0.committedInstType::SimdWholeRegisterStore            0      0.00%    100.00% # Class of committed instruction. (Count)
system.cpu_cluster.cpus.commitStats0.committedInstType::SimdUnitStrideFaultOnlyFirstLoad            0      0.00%    100.00% # Class of committed instruction. (Count)
system.cpu_cluster.cpus.commitStats0.committedInstType::SimdUnitStrideSegmentedLoad            0      0.00%    100.00% # Class of committed instruction. (Count)
[...]
system.mem_ctrls.dram.totBusLat              39092352                       # Total ticks spent in databus transfers (Tick)
system.mem_ctrls.dram.totMemAccLat         1120979506                       # Total ticks spent from burst creation until serviced by the DRAM (Tick)
system.mem_ctrls.dram.avgQLat                54702.20                       # Average queueing delay per DRAM burst ((Tick/Count))
system.mem_ctrls.dram.avgBusLat               2496.00                       # Average bus latency per DRAM burst ((Tick/Count))
system.mem_ctrls.dram.avgMemAccLat           71573.20                       # Average memory access latency per DRAM burst ((Tick/Count))
system.mem_ctrls.dram.readRowHits                2492                       # Number of row buffer hits during reads (Count)
system.mem_ctrls.dram.writeRowHits               1471                       # Number of row buffer hits during writes (Count)
system.mem_ctrls.dram.readRowHitRate            15.91                       # Row buffer hit rate for reads (Ratio)
system.mem_ctrls.dram.writeRowHitRate           11.23                       # Row buffer hit rate for writes (Ratio)
system.mem_ctrls.dram.bytesPerActivate::samples        24798                       # Bytes accessed per row activation (Byte)
system.mem_ctrls.dram.bytesPerActivate::mean    74.227922                       # Bytes accessed per row activation (Byte)
system.mem_ctrls.dram.bytesPerActivate::gmean    69.707656                       # Bytes accessed per row activation (Byte)
system.mem_ctrls.dram.bytesPerActivate::stdev    40.372688                       # Bytes accessed per row activation (Byte)
system.mem_ctrls.dram.bytesPerActivate::64-127        22535     90.87%     90.87% # Bytes accessed per row activation (Byte)
system.mem_ctrls.dram.bytesPerActivate::128-191         1444      5.82%     96.70% # Bytes accessed per row activation (Byte)
system.mem_ctrls.dram.bytesPerActivate::192-255          349      1.41%     98.10% # Bytes accessed per row activation (Byte)
system.mem_ctrls.dram.bytesPerActivate::256-319          218      0.88%     98.98% # Bytes accessed per row activation (Byte)
system.mem_ctrls.dram.bytesPerActivate::320-383          154      0.62%     99.60% # Bytes accessed per row activation (Byte)
system.mem_ctrls.dram.bytesPerActivate::384-447           65      0.26%     99.87% # Bytes accessed per row activation (Byte)
system.mem_ctrls.dram.bytesPerActivate::448-511           19      0.08%     99.94% # Bytes accessed per row activation (Byte)
system.mem_ctrls.dram.bytesPerActivate::512-575            8      0.03%     99.98% # Bytes accessed per row activation (Byte)
system.mem_ctrls.dram.bytesPerActivate::576-639            2      0.01%     99.98% # Bytes accessed per row activation (Byte)
system.mem_ctrls.dram.bytesPerActivate::640-703            2      0.01%     99.99% # Bytes accessed per row activation (Byte)
system.mem_ctrls.dram.bytesPerActivate::704-767            1      0.00%    100.00% # Bytes accessed per row activation (Byte)
system.mem_ctrls.dram.bytesPerActivate::832-895            1      0.00%    100.00% # Bytes accessed per row activation (Byte)
system.mem_ctrls.dram.bytesPerActivate::total        24798                       # Bytes accessed per row activation (Byte)
system.mem_ctrls.dram.dramBytesRead           1002368                       # Total bytes read (Byte)
system.mem_ctrls.dram.dramBytesWritten         838400                       # Total bytes written (Byte)
system.mem_ctrls.dram.avgRdBW             1086.662590                       # Average DRAM read bandwidth in MiBytes/s ((Byte/Second))
system.mem_ctrls.dram.avgWrBW              908.905627                       # Average DRAM write bandwidth in MiBytes/s ((Byte/Second))
system.mem_ctrls.dram.peakBW                 25641.00                       # Theoretical peak bandwidth in MiByte/s ((Byte/Second))
system.mem_ctrls.dram.busUtil                    7.78                       # Data bus utilization in percentage (Ratio)
system.mem_ctrls.dram.busUtilRead                4.24                       # Data bus utilization in percentage for reads (Ratio)
system.mem_ctrls.dram.busUtilWrite               3.54                       # Data bus utilization in percentage for writes (Ratio)
system.mem_ctrls.dram.pageHitRate               13.78                       # Row buffer hit rate, read and write combined (Ratio)
system.mem_ctrls.dram.power_state.pwrStateResidencyTicks::UNDEFINED    922428000                       # Cumulative time (in ticks) in various power states (Tick)
system.mem_ctrls.dram.rank0.actEnergy    -70130778.432000                       # Energy for activate commands per rank (pJ) (Joule)
system.mem_ctrls.dram.rank0.preEnergy    46978918.272000                       # Energy for precharge commands per rank (pJ) (Joule)
system.mem_ctrls.dram.rank0.readEnergy   66738463.334400                       # Energy for read commands per rank (pJ) (Joule)
system.mem_ctrls.dram.rank0.writeEnergy  48484001.280000                       # Energy for write commands per rank (pJ) (Joule)
system.mem_ctrls.dram.rank0.refreshEnergy 41550908.256000                       # Energy for refresh commands per rank (pJ) (Joule)
system.mem_ctrls.dram.rank0.actBackEnergy 354504552.230400                       # Energy for active background per rank (pJ) (Joule)
system.mem_ctrls.dram.rank0.preBackEnergy 143719848.729600                       # Energy for precharge background per rank (pJ) (Joule)
system.mem_ctrls.dram.rank0.actPowerDownEnergy            0                       # Energy for active power-down per rank (pJ) (Joule)
system.mem_ctrls.dram.rank0.prePowerDownEnergy            0                       # Energy for precharge power-down per rank (pJ) (Joule)
system.mem_ctrls.dram.rank0.selfRefreshEnergy            0                       # Energy for self refresh per rank (pJ) (Joule)
system.mem_ctrls.dram.rank0.totalEnergy  631845913.670400                       # Total energy per rank (pJ) (Joule)
system.mem_ctrls.dram.rank0.averagePower   684.981282                       # Core power per rank (mW) (Watt)
system.mem_ctrls.dram.rank0.totalIdleTime            0                       # Total Idle time Per DRAM Rank (Tick)
system.mem_ctrls.dram.rank0.pwrStateTime::IDLE    218794015                       # Time in different power states (Tick)
system.mem_ctrls.dram.rank0.pwrStateTime::REF     69915000                       # Time in different power states (Tick)
system.mem_ctrls.dram.rank0.pwrStateTime::SREF            0                       # Time in different power states (Tick)
system.mem_ctrls.dram.rank0.pwrStateTime::PRE_PDN            0                       # Time in different power states (Tick)
system.mem_ctrls.dram.rank0.pwrStateTime::ACT    633718985                       # Time in different power states (Tick)
system.mem_ctrls.dram.rank0.pwrStateTime::ACT_PDN            0                       # Time in different power states (Tick)
system.mem_ctrls.power_state.pwrStateResidencyTicks::UNDEFINED    922428000                       # Cumulative time (in ticks) in various power states (Tick)
system.membus.transDist::ReadReq                    7                       # Transaction distribution (Count)
system.membus.transDist::ReadResp               12228                       # Transaction distribution (Count)
system.membus.transDist::WritebackDirty         13096                       # Transaction distribution (Count)
system.membus.transDist::CleanEvict             10151                       # Transaction distribution (Count)
system.membus.transDist::UpgradeReq                38                       # Transaction distribution (Count)
system.membus.transDist::SCUpgradeReq               3                       # Transaction distribution (Count)
system.membus.transDist::ReadExReq               3487                       # Transaction distribution (Count)
system.membus.transDist::ReadExResp              3487                       # Transaction distribution (Count)
system.membus.transDist::ReadCleanReq           12221                       # Transaction distribution (Count)
system.membus.transDist::InvalidateReq           7486                       # Transaction distribution (Count)
system.membus.pktCount_system.cpu_cluster.l2.mem_side_port::system.mem_ctrls.port        62190                       # Packet count per connected requestor and responder (Count)
system.membus.pktCount_system.cpu_cluster.l2.mem_side_port::system.iobridge.cpu_side_port           14                       # Packet count per connected requestor and responder (Count)
system.membus.pktCount_system.cpu_cluster.l2.mem_side_port::total        62204                       # Packet count per connected requestor and responder (Count)
system.membus.pktCount::total                   62204                       # Packet count per connected requestor and responder (Count)
system.membus.pktSize_system.cpu_cluster.l2.mem_side_port::system.mem_ctrls.port      1843456                       # Cumulative packet size per connected requestor and responder (Byte)
system.membus.pktSize_system.cpu_cluster.l2.mem_side_port::system.iobridge.cpu_side_port           28                       # Cumulative packet size per connected requestor and responder (Byte)
system.membus.pktSize_system.cpu_cluster.l2.mem_side_port::total      1843484                       # Cumulative packet size per connected requestor and responder (Byte)
system.membus.pktSize::total                  1843484                       # Cumulative packet size per connected requestor and responder (Byte)
system.membus.snoops                                0                       # Total snoops (Count)
system.membus.snoopTraffic                          0                       # Total snoop traffic (Byte)
system.membus.snoopFanout::samples              23242                       # Request fanout histogram (Count)
system.membus.snoopFanout::mean                     0                       # Request fanout histogram (Count)
system.membus.snoopFanout::stdev                    0                       # Request fanout histogram (Count)
system.membus.snoopFanout::underflows               0      0.00%      0.00% # Request fanout histogram (Count)
system.membus.snoopFanout::0                    23242    100.00%    100.00% # Request fanout histogram (Count)
system.membus.snoopFanout::1                        0      0.00%    100.00% # Request fanout histogram (Count)
system.membus.snoopFanout::2                        0      0.00%    100.00% # Request fanout histogram (Count)
system.membus.snoopFanout::overflows                0      0.00%    100.00% # Request fanout histogram (Count)
system.membus.snoopFanout::min_value                0                       # Request fanout histogram (Count)
system.membus.snoopFanout::max_value                0                       # Request fanout histogram (Count)
system.membus.snoopFanout::total                23242                       # Request fanout histogram (Count)
system.membus.badaddr_responder.power_state.pwrStateResidencyTicks::UNDEFINED    922428000                       # Cumulative time (in ticks) in various power states (Tick)
system.membus.power_state.pwrStateResidencyTicks::UNDEFINED    922428000                       # Cumulative time (in ticks) in various power states (Tick)
system.membus.reqLayer0.occupancy           104770441                       # Layer occupancy (ticks) (Tick)
system.membus.reqLayer0.utilization               0.1                       # Layer utilization (Ratio)
system.membus.reqLayer1.occupancy                9500                       # Layer occupancy (ticks) (Tick)
system.membus.reqLayer1.utilization               0.0                       # Layer utilization (Ratio)
system.membus.respLayer2.occupancy           85869234                       # Layer occupancy (ticks) (Tick)
system.membus.respLayer2.utilization              0.1                       # Layer utilization (Ratio)
system.membus.snoop_filter.totRequests          46487                       # Total number of requests made to the snoop filter. (Count)
system.membus.snoop_filter.hitSingleRequests        23299                       # Number of requests hitting in the snoop filter with a single holder of the requested data. (Count)
system.membus.snoop_filter.hitMultiRequests            0                       # Number of requests hitting in the snoop filter with multiple (>1) holders of the requested data. (Count)
system.membus.snoop_filter.totSnoops                0                       # Total number of snoops made to the snoop filter. (Count)
system.membus.snoop_filter.hitSingleSnoops            0                       # Number of snoops hitting in the snoop filter with a single holder of the requested data. (Count)
system.membus.snoop_filter.hitMultiSnoops            0                       # Number of snoops hitting in the snoop filter with multiple (>1) holders of the requested data. (Count)
system.pci_devices.power_state.pwrStateResidencyTicks::UNDEFINED    922428000                       # Cumulative time (in ticks) in various power states (Tick)
system.realview.bootmem.power_state.pwrStateResidencyTicks::UNDEFINED    922428000                       # Cumulative time (in ticks) in various power states (Tick)
system.realview.clock24MHz.clock                41667                       # Clock period in ticks (Tick)
system.realview.clock32KHz.clock             31250000                       # Clock period in ticks (Tick)
system.realview.dcc.osc_cpu.clock               16667                       # Clock period in ticks (Tick)
system.realview.dcc.osc_ddr.clock               25000                       # Clock period in ticks (Tick)
system.realview.dcc.osc_hsbm.clock              25000                       # Clock period in ticks (Tick)
system.realview.dcc.osc_pxl.clock               42105                       # Clock period in ticks (Tick)
system.realview.dcc.osc_smb.clock               20000                       # Clock period in ticks (Tick)
system.realview.dcc.osc_sys.clock               16667                       # Clock period in ticks (Tick)
system.realview.el2_watchdog.power_state.pwrStateResidencyTicks::UNDEFINED    922428000                       # Cumulative time (in ticks) in various power states (Tick)
system.realview.energy_ctrl.power_state.pwrStateResidencyTicks::UNDEFINED    922428000                       # Cumulative time (in ticks) in various power states (Tick)
system.realview.flash0.power_state.pwrStateResidencyTicks::UNDEFINED    922428000                       # Cumulative time (in ticks) in various power states (Tick)
system.realview.flash1.power_state.pwrStateResidencyTicks::UNDEFINED    922428000                       # Cumulative time (in ticks) in various power states (Tick)
system.realview.generic_timer_mem.frames0.power_state.pwrStateResidencyTicks::UNDEFINED    922428000                       # Cumulative time (in ticks) in various power states (Tick)
system.realview.generic_timer_mem.frames1.power_state.pwrStateResidencyTicks::UNDEFINED    922428000                       # Cumulative time (in ticks) in various power states (Tick)
system.realview.generic_timer_mem.power_state.pwrStateResidencyTicks::UNDEFINED    922428000                       # Cumulative time (in ticks) in various power states (Tick)
system.realview.gic.power_state.pwrStateResidencyTicks::UNDEFINED    922428000                       # Cumulative time (in ticks) in various power states (Tick)
system.realview.gicv2m.power_state.pwrStateResidencyTicks::UNDEFINED    922428000                       # Cumulative time (in ticks) in various power states (Tick)
system.realview.io_voltage.voltage           3.300000                       # Voltage in Volts (Volt)
system.realview.kmi0.power_state.pwrStateResidencyTicks::UNDEFINED    922428000                       # Cumulative time (in ticks) in various power states (Tick)
system.realview.kmi1.power_state.pwrStateResidencyTicks::UNDEFINED    922428000                       # Cumulative time (in ticks) in various power states (Tick)
system.realview.mcc.osc_clcd.clock              42105                       # Clock period in ticks (Tick)
system.realview.mcc.osc_mcc.clock               20000                       # Clock period in ticks (Tick)
system.realview.mcc.osc_peripheral.clock        41667                       # Clock period in ticks (Tick)
system.realview.mcc.osc_system_bus.clock        41667                       # Clock period in ticks (Tick)
system.realview.non_trusted_sram.power_state.pwrStateResidencyTicks::UNDEFINED    922428000                       # Cumulative time (in ticks) in various power states (Tick)
system.realview.pci_host.power_state.pwrStateResidencyTicks::UNDEFINED    922428000                       # Cumulative time (in ticks) in various power states (Tick)
system.realview.pwr_ctrl.power_state.pwrStateResidencyTicks::UNDEFINED    922428000                       # Cumulative time (in ticks) in various power states (Tick)
system.realview.realview_io.power_state.pwrStateResidencyTicks::UNDEFINED    922428000                       # Cumulative time (in ticks) in various power states (Tick)
system.realview.rtc.power_state.pwrStateResidencyTicks::UNDEFINED    922428000                       # Cumulative time (in ticks) in various power states (Tick)
system.realview.system_watchdog.power_state.pwrStateResidencyTicks::UNDEFINED    922428000                       # Cumulative time (in ticks) in various power states (Tick)
system.realview.trusted_dram.power_state.pwrStateResidencyTicks::UNDEFINED    922428000                       # Cumulative time (in ticks) in various power states (Tick)
system.realview.trusted_sram.power_state.pwrStateResidencyTicks::UNDEFINED    922428000                       # Cumulative time (in ticks) in various power states (Tick)
system.realview.trusted_watchdog.power_state.pwrStateResidencyTicks::UNDEFINED    922428000                       # Cumulative time (in ticks) in various power states (Tick)
system.realview.uart0.power_state.pwrStateResidencyTicks::UNDEFINED    922428000                       # Cumulative time (in ticks) in various power states (Tick)
system.realview.uart1.power_state.pwrStateResidencyTicks::UNDEFINED    922428000                       # Cumulative time (in ticks) in various power states (Tick)
system.realview.uart2.power_state.pwrStateResidencyTicks::UNDEFINED    922428000                       # Cumulative time (in ticks) in various power states (Tick)
system.realview.uart3.power_state.pwrStateResidencyTicks::UNDEFINED    922428000                       # Cumulative time (in ticks) in various power states (Tick)
system.realview.vgic.power_state.pwrStateResidencyTicks::UNDEFINED    922428000                       # Cumulative time (in ticks) in various power states (Tick)
system.realview.vio0.power_state.pwrStateResidencyTicks::UNDEFINED    922428000                       # Cumulative time (in ticks) in various power states (Tick)
system.realview.vio1.power_state.pwrStateResidencyTicks::UNDEFINED    922428000                       # Cumulative time (in ticks) in various power states (Tick)
system.realview.vram.power_state.pwrStateResidencyTicks::UNDEFINED    922428000                       # Cumulative time (in ticks) in various power states (Tick)
system.realview.watchdog.power_state.pwrStateResidencyTicks::UNDEFINED    922428000                       # Cumulative time (in ticks) in various power states (Tick)
system.voltage_domain.voltage                       1                       # Voltage in Volts (Volt)
system.workload.inst.arm                            0                       # number of arm instructions executed (Count)
system.workload.inst.quiesce                        8                       # number of quiesce instructions executed (Count)

---------- End Simulation Statistics   ----------
